download/pglib-opf-master/api/pglib_opf_case2746wp_k__api.m
%%%%%%%%%%%%%%%%%%%%%%%%%%%%%%%%%%%%%%%%%%%%%%%%%%%%%%%%%%%%%%%%%%%%%%%%%%%
%%%%                                                                  %%%%%
%%%%    IEEE PES Power Grid Library - Optimal Power Flow - v19.05     %%%%%
%%%%          (https://github.com/power-grid-lib/pglib-opf)           %%%%%
%%%%             Benchmark Group - Active Power Increase              %%%%%
%%%%                         08 - May - 2019                          %%%%%
%%%%                                                                  %%%%%
%%%%%%%%%%%%%%%%%%%%%%%%%%%%%%%%%%%%%%%%%%%%%%%%%%%%%%%%%%%%%%%%%%%%%%%%%%%
function mpc = pglib_opf_case2746wp_k__api
mpc.version = '2';
mpc.baseMVA = 100.0;

%% bus data
%	bus_i	type	Pd	Qd	Gs	Bs	area	Vm	Va	baseKV	zone	Vmax	Vmin
mpc.bus = [
	1	 1	 0.0	 0.0	 0.0	 0.0	 1	    1.03000	    0.00000	 220.0	 1	    1.11000	    0.95000;
	2	 1	 0.0	 0.0	 0.0	 0.0	 1	    1.03000	    0.00000	 220.0	 1	    1.11000	    0.95000;
	3	 1	 0.0	 0.0	 0.0	 0.0	 1	    1.03000	    0.00000	 220.0	 1	    1.11000	    0.95000;
	4	 1	 0.0	 0.0	 0.0	 0.0	 1	    1.03000	    0.00000	 220.0	 1	    1.11000	    0.95000;
	5	 1	 0.0	 0.0	 0.0	 0.0	 1	    1.03000	    0.00000	 220.0	 1	    1.11000	    0.95000;
	6	 1	 0.0	 0.0	 0.0	 0.0	 1	    1.03000	    0.00000	 220.0	 1	    1.11000	    0.95000;
	7	 1	 0.0	 0.0	 0.0	 0.0	 1	    1.03000	    0.00000	 220.0	 1	    1.11000	    0.95000;
	8	 1	 0.0	 0.0	 0.0	 0.0	 1	    1.00000	    0.00000	 400.0	 1	    1.05000	    0.95000;
	9	 1	 0.0	 0.0	 0.0	 0.0	 1	    1.00000	    0.00000	 400.0	 1	    1.05000	    0.95000;
	10	 1	 0.0	 0.0	 0.0	 0.0	 1	    1.03000	    0.00000	 220.0	 1	    1.11000	    0.95000;
	11	 1	 0.0	 0.0	 0.0	 0.0	 1	    1.03000	    0.00000	 220.0	 1	    1.11000	    0.95000;
	12	 1	 0.0	 0.0	 0.0	 0.0	 1	    1.03000	    0.00000	 220.0	 1	    1.11000	    0.95000;
	13	 1	 0.0	 0.0	 0.0	 0.0	 1	    1.00000	    0.00000	 400.0	 1	    1.05000	    0.95000;
	14	 1	 0.0	 0.0	 0.0	 0.0	 1	    1.00000	    0.00000	 400.0	 1	    1.05000	    0.95000;
	15	 1	 0.0	 0.0	 0.0	 0.0	 1	    1.00000	    0.00000	 400.0	 1	    1.05000	    0.95000;
	16	 1	 0.0	 0.0	 0.0	 0.0	 1	    1.00000	    0.00000	 400.0	 1	    1.05000	    0.95000;
	17	 2	 11.14	 40.00	 0.0	 0.0	 1	    1.03000	    0.00000	 220.0	 1	    1.11000	    0.95000;
	18	 2	 14.17	 40.00	 0.0	 0.0	 1	    1.03000	    0.00000	 220.0	 1	    1.11000	    0.95000;
	19	 1	 0.0	 0.0	 0.0	 0.0	 1	    1.03000	    0.00000	 220.0	 1	    1.11000	    0.95000;
	20	 1	 0.0	 0.0	 0.0	 0.0	 1	    1.03000	    0.00000	 220.0	 1	    1.11000	    0.95000;
	21	 1	 0.0	 0.0	 0.0	 0.0	 1	    1.03000	    0.00000	 220.0	 1	    1.11000	    0.95000;
	22	 1	 0.0	 0.0	 0.0	 0.0	 1	    1.03000	    0.00000	 220.0	 1	    1.11000	    0.95000;
	23	 1	 0.0	 0.0	 0.0	 0.0	 1	    1.03000	    0.00000	 220.0	 1	    1.11000	    0.95000;
	24	 1	 0.0	 0.0	 0.0	 0.0	 1	    1.03000	    0.00000	 220.0	 1	    1.11000	    0.95000;
	25	 1	 0.0	 0.0	 0.0	 0.0	 1	    1.00000	    0.00000	 400.0	 1	    1.05000	    0.95000;
	26	 2	 47.32	 72.05	 0.0	 0.0	 1	    1.03000	    0.00000	 220.0	 1	    1.11000	    0.95000;
	27	 2	 86.55	 122.06	 0.0	 0.0	 1	    1.03000	    0.00000	 220.0	 1	    1.11000	    0.95000;
	28	 3	 60.74	 110.00	 0.0	 0.0	 1	    1.00000	    0.00000	 400.0	 1	    1.05000	    0.95000;
	29	 2	 60.84	 90.00	 0.0	 0.0	 1	    1.00000	    0.00000	 400.0	 1	    1.05000	    0.95000;
	30	 1	 0.0	 0.0	 0.0	 0.0	 1	    1.03000	    0.00000	 220.0	 1	    1.11000	    0.95000;
	31	 1	 0.0	 0.0	 0.0	 0.0	 1	    1.00000	    0.00000	 400.0	 1	    1.05000	    0.95000;
	32	 1	 0.0	 0.0	 0.0	 0.0	 1	    1.03000	    0.00000	 220.0	 1	    1.11000	    0.95000;
	33	 1	 0.0	 0.0	 0.0	 0.0	 1	    1.03000	    0.00000	 220.0	 1	    1.11000	    0.95000;
	34	 1	 0.0	 0.0	 0.0	 0.0	 1	    1.03000	    0.00000	 220.0	 1	    1.11000	    0.95000;
	35	 1	 0.0	 0.0	 0.0	 0.0	 1	    1.03000	    0.00000	 220.0	 2	    1.11000	    0.95000;
	36	 1	 0.0	 0.0	 0.0	 0.0	 1	    1.03000	    0.00000	 220.0	 2	    1.11000	    0.95000;
	37	 1	 0.0	 0.0	 0.0	 0.0	 1	    1.03000	    0.00000	 220.0	 2	    1.11000	    0.95000;
	38	 1	 0.0	 0.0	 0.0	 0.0	 1	    1.03000	    0.00000	 220.0	 2	    1.11000	    0.95000;
	39	 1	 0.0	 0.0	 0.0	 0.0	 1	    1.03000	    0.00000	 220.0	 2	    1.11000	    0.95000;
	40	 1	 0.0	 0.0	 0.0	 0.0	 1	    1.03000	    0.00000	 220.0	 2	    1.11000	    0.95000;
	41	 1	 0.0	 0.0	 0.0	 0.0	 1	    1.03000	    0.00000	 220.0	 2	    1.11000	    0.95000;
	42	 1	 0.0	 0.0	 0.0	 0.0	 1	    1.00000	    0.00000	 400.0	 2	    1.05000	    0.95000;
	43	 2	 11.44	 0.00	 0.0	 0.0	 1	    1.03000	    0.00000	 220.0	 2	    1.11000	    0.95000;
	44	 2	 24.00	 0.00	 0.0	 0.0	 1	    1.03000	    0.00000	 220.0	 2	    1.11000	    0.95000;
	45	 2	 20.00	 0.00	 0.0	 0.0	 1	    1.00000	    0.00000	 400.0	 2	    1.05000	    0.95000;
	46	 1	 0.0	 0.0	 0.0	 0.0	 1	    1.00000	    0.00000	 400.0	 2	    1.05000	    0.95000;
	47	 1	 0.0	 0.0	 0.0	 0.0	 1	    1.03000	    0.00000	 220.0	 2	    1.11000	    0.95000;
	48	 1	 0.0	 0.0	 0.0	 0.0	 1	    1.00000	    0.00000	 400.0	 2	    1.05000	    0.95000;
	49	 1	 0.0	 0.0	 0.0	 0.0	 1	    1.00000	    0.00000	 400.0	 2	    1.05000	    0.95000;
	50	 1	 0.0	 0.0	 0.0	 0.0	 1	    1.00000	    0.00000	 400.0	 2	    1.05000	    0.95000;
	51	 1	 0.0	 0.0	 0.0	 0.0	 1	    1.03000	    0.00000	 220.0	 2	    1.11000	    0.95000;
	52	 1	 0.0	 0.0	 0.0	 0.0	 1	    1.03000	    0.00000	 220.0	 2	    1.11000	    0.95000;
	53	 1	 0.0	 0.0	 0.0	 0.0	 1	    1.00000	    0.00000	 400.0	 2	    1.05000	    0.95000;
	54	 1	 0.0	 0.0	 0.0	 0.0	 1	    1.00000	    0.00000	 400.0	 2	    1.05000	    0.95000;
	55	 2	 12.00	 0.00	 0.0	 0.0	 1	    1.03000	    0.00000	 220.0	 2	    1.11000	    0.95000;
	56	 2	 11.44	 0.00	 0.0	 0.0	 1	    1.03000	    0.00000	 220.0	 2	    1.11000	    0.95000;
	57	 2	 12.00	 0.00	 0.0	 0.0	 1	    1.00000	    0.00000	 400.0	 2	    1.05000	    0.95000;
	58	 2	 11.44	 0.00	 0.0	 0.0	 1	    1.00000	    0.00000	 400.0	 2	    1.05000	    0.95000;
	59	 2	 169.59	 60.00	 0.0	 0.0	 1	    1.03000	    0.00000	 220.0	 2	    1.11000	    0.95000;
	60	 1	 0.0	 0.0	 0.0	 0.0	 1	    1.03000	    0.00000	 220.0	 2	    1.11000	    0.95000;
	61	 1	 0.0	 0.0	 0.0	 0.0	 1	    1.03000	    0.00000	 220.0	 2	    1.11000	    0.95000;
	62	 1	 0.0	 0.0	 0.0	 0.0	 1	    1.03000	    0.00000	 220.0	 2	    1.11000	    0.95000;
	63	 1	 0.0	 0.0	 0.0	 0.0	 1	    1.03000	    0.00000	 220.0	 2	    1.11000	    0.95000;
	64	 1	 0.0	 0.0	 0.0	 0.0	 1	    1.00000	    0.00000	 400.0	 2	    1.05000	    0.95000;
	65	 1	 0.0	 0.0	 0.0	 0.0	 1	    1.00000	    0.00000	 400.0	 2	    1.05000	    0.95000;
	66	 1	 0.0	 0.0	 0.0	 0.0	 1	    1.03000	    0.00000	 220.0	 2	    1.11000	    0.95000;
	67	 1	 0.0	 0.0	 0.0	 0.0	 1	    1.03000	    0.00000	 220.0	 2	    1.11000	    0.95000;
	68	 1	 0.0	 0.0	 0.0	 0.0	 1	    1.03000	    0.00000	 220.0	 2	    1.11000	    0.95000;
	69	 1	 0.0	 0.0	 0.0	 0.0	 1	    1.03000	    0.00000	 220.0	 3	    1.11000	    0.95000;
	70	 1	 7.12	 0.00	 0.0	 0.0	 1	    1.03000	    0.00000	 220.0	 3	    1.11000	    0.95000;
	71	 1	 8.41	 0.93	 0.0	 0.0	 1	    1.03000	    0.00000	 220.0	 3	    1.11000	    0.95000;
	72	 1	 0.0	 0.0	 0.0	 0.0	 1	    1.03000	    0.00000	 220.0	 3	    1.11000	    0.95000;
	73	 1	 0.0	 0.0	 0.0	 0.0	 1	    1.03000	    0.00000	 220.0	 3	    1.11000	    0.95000;
	74	 1	 0.0	 0.0	 0.0	 0.0	 1	    1.03000	    0.00000	 220.0	 3	    1.11000	    0.95000;
	75	 1	 0.0	 0.0	 0.0	 0.0	 1	    1.03000	    0.00000	 220.0	 3	    1.11000	    0.95000;
	76	 1	 0.0	 0.0	 0.0	 0.0	 1	    1.03000	    0.00000	 220.0	 3	    1.11000	    0.95000;
	77	 1	 0.0	 0.0	 0.0	 0.0	 1	    1.03000	    0.00000	 220.0	 3	    1.11000	    0.95000;
	78	 2	 27.33	 70.00	 0.0	 0.0	 1	    1.03000	    0.00000	 220.0	 3	    1.11000	    0.95000;
	79	 2	 9.11	 21.00	 0.0	 0.0	 1	    1.03000	    0.00000	 220.0	 3	    1.11000	    0.95000;
	80	 1	 10.46	 2.61	 0.0	 0.0	 1	    1.03000	    0.00000	 220.0	 3	    1.11000	    0.95000;
	81	 1	 0.0	 0.0	 0.0	 0.0	 1	    1.03000	    0.00000	 220.0	 3	    1.11000	    0.95000;
	82	 2	 35.43	 108.00	 0.0	 0.0	 1	    1.00000	    0.00000	 400.0	 3	    1.05000	    0.95000;
	83	 1	 0.0	 0.0	 0.0	 0.0	 1	    1.03000	    0.00000	 220.0	 3	    1.11000	    0.95000;
	84	 1	 0.0	 0.0	 0.0	 0.0	 1	    1.03000	    0.00000	 220.0	 3	    1.11000	    0.95000;
	85	 1	 0.0	 0.0	 0.0	 0.0	 1	    1.03000	    0.00000	 220.0	 3	    1.11000	    0.95000;
	86	 1	 38.36	 12.35	 0.0	 0.0	 1	    1.03000	    0.00000	 220.0	 3	    1.11000	    0.95000;
	87	 1	 0.0	 0.0	 0.0	 0.0	 1	    1.03000	    0.00000	 220.0	 3	    1.11000	    0.95000;
	88	 1	 0.0	 0.0	 0.0	 0.0	 1	    1.03000	    0.00000	 220.0	 3	    1.11000	    0.95000;
	89	 1	 0.0	 0.0	 0.0	 0.0	 1	    1.03000	    0.00000	 220.0	 3	    1.11000	    0.95000;
	90	 1	 0.0	 0.0	 0.0	 0.0	 1	    1.03000	    0.00000	 220.0	 3	    1.11000	    0.95000;
	91	 1	 0.0	 0.0	 0.0	 0.0	 1	    1.03000	    0.00000	 220.0	 3	    1.11000	    0.95000;
	92	 1	 0.0	 0.0	 0.0	 0.0	 1	    1.00000	    0.00000	 400.0	 3	    1.05000	    0.95000;
	93	 1	 0.0	 0.0	 0.0	 0.0	 1	    1.00000	    0.00000	 400.0	 3	    1.05000	    0.95000;
	94	 1	 0.0	 0.0	 0.0	 0.0	 1	    1.03000	    0.00000	 220.0	 3	    1.11000	    0.95000;
	95	 1	 0.0	 0.0	 0.0	 0.0	 1	    1.03000	    0.00000	 220.0	 3	    1.11000	    0.95000;
	96	 1	 0.0	 0.0	 0.0	 0.0	 1	    1.03000	    0.00000	 220.0	 3	    1.11000	    0.95000;
	97	 1	 0.0	 0.0	 0.0	 0.0	 1	    1.03000	    0.00000	 220.0	 3	    1.11000	    0.95000;
	98	 1	 16.23	 7.27	 0.0	 0.0	 1	    1.03000	    0.00000	 220.0	 3	    1.11000	    0.95000;
	99	 1	 7.86	 0.26	 0.0	 0.0	 1	    1.03000	    0.00000	 220.0	 3	    1.11000	    0.95000;
	100	 1	 0.0	 0.0	 0.0	 0.0	 1	    1.03000	    0.00000	 220.0	 3	    1.11000	    0.95000;
	101	 1	 0.0	 0.0	 0.0	 0.0	 1	    1.03000	    0.00000	 220.0	 3	    1.11000	    0.95000;
	102	 1	 0.0	 0.0	 0.0	 0.0	 1	    1.03000	    0.00000	 220.0	 3	    1.11000	    0.95000;
	103	 1	 0.0	 0.0	 0.0	 0.0	 1	    1.03000	    0.00000	 220.0	 3	    1.11000	    0.95000;
	104	 2	 14.17	 40.00	 0.0	 0.0	 1	    1.03000	    0.00000	 220.0	 3	    1.11000	    0.95000;
	105	 2	 14.17	 40.00	 0.0	 0.0	 1	    1.03000	    0.00000	 220.0	 3	    1.11000	    0.95000;
	106	 2	 7.09	 18.00	 0.0	 0.0	 1	    1.03000	    0.00000	 220.0	 3	    1.11000	    0.95000;
	107	 2	 8.10	 15.00	 0.0	 0.0	 1	    1.03000	    0.00000	 220.0	 3	    1.11000	    0.95000;
	108	 1	 1.04	 0.00	 0.0	 0.0	 1	    1.03000	    0.00000	 220.0	 3	    1.11000	    0.95000;
	109	 1	 1.26	 0.00	 0.0	 0.0	 1	    1.03000	    0.00000	 220.0	 3	    1.11000	    0.95000;
	110	 1	 0.0	 0.0	 0.0	 0.0	 1	    1.03000	    0.00000	 220.0	 3	    1.11000	    0.95000;
	111	 1	 0.0	 0.0	 0.0	 0.0	 1	    1.03000	    0.00000	 220.0	 3	    1.11000	    0.95000;
	112	 1	 0.0	 0.0	 0.0	 0.0	 1	    1.03000	    0.00000	 220.0	 3	    1.11000	    0.95000;
	113	 1	 0.0	 0.0	 0.0	 0.0	 1	    1.03000	    0.00000	 220.0	 3	    1.11000	    0.95000;
	114	 1	 0.0	 0.0	 0.0	 0.0	 1	    1.03000	    0.00000	 220.0	 3	    1.11000	    0.95000;
	115	 1	 0.0	 0.0	 0.0	 0.0	 1	    1.00000	    0.00000	 400.0	 3	    1.05000	    0.95000;
	116	 2	 0.0	 0.0	 0.0	 0.0	 1	    1.03000	    0.00000	 220.0	 3	    1.11000	    0.95000;
	117	 2	 8.10	 15.00	 0.0	 0.0	 1	    1.03000	    0.00000	 220.0	 3	    1.11000	    0.95000;
	118	 2	 5.57	 10.00	 0.0	 0.0	 1	    1.03000	    0.00000	 220.0	 3	    1.11000	    0.95000;
	119	 1	 0.0	 0.0	 0.0	 0.0	 1	    1.03000	    0.00000	 220.0	 3	    1.11000	    0.95000;
	120	 1	 0.0	 0.0	 0.0	 0.0	 1	    1.00000	    0.00000	 400.0	 3	    1.05000	    0.95000;
	121	 1	 0.0	 0.0	 0.0	 0.0	 1	    1.00000	    0.00000	 400.0	 3	    1.05000	    0.95000;
	122	 1	 0.0	 0.0	 0.0	 0.0	 1	    1.00000	    0.00000	 400.0	 3	    1.05000	    0.95000;
	123	 1	 0.0	 0.0	 0.0	 0.0	 1	    1.00000	    0.00000	 400.0	 3	    1.05000	    0.95000;
	124	 1	 0.0	 0.0	 0.0	 0.0	 1	    1.03000	    0.00000	 220.0	 3	    1.11000	    0.95000;
	125	 2	 18.57	 21.86	 0.0	 0.0	 1	    1.03000	    0.00000	 220.0	 3	    1.11000	    0.95000;
	126	 2	 28.82	 34.29	 0.0	 0.0	 1	    1.03000	    0.00000	 220.0	 3	    1.11000	    0.95000;
	127	 2	 28.35	 66.00	 0.0	 0.0	 1	    1.00000	    0.00000	 400.0	 3	    1.05000	    0.95000;
	128	 1	 0.0	 0.0	 0.0	 0.0	 1	    1.00000	    0.00000	 400.0	 3	    1.05000	    0.95000;
	129	 1	 0.0	 0.0	 0.0	 0.0	 1	    1.03000	    0.00000	 220.0	 3	    1.11000	    0.95000;
	130	 1	 0.0	 0.0	 0.0	 0.0	 1	    1.03000	    0.00000	 220.0	 3	    1.11000	    0.95000;
	131	 1	 0.0	 0.0	 0.0	 0.0	 1	    1.03000	    0.00000	 220.0	 3	    1.11000	    0.95000;
	132	 2	 3.04	 18.00	 0.0	 0.0	 1	    1.03000	    0.00000	 220.0	 3	    1.11000	    0.95000;
	133	 2	 2.02	 6.00	 0.0	 0.0	 1	    1.03000	    0.00000	 220.0	 3	    1.11000	    0.95000;
	134	 2	 15.64	 12.88	 0.0	 0.0	 1	    1.03000	    0.00000	 220.0	 4	    1.11000	    0.95000;
	135	 2	 5.25	 -0.36	 0.0	 0.0	 1	    1.03000	    0.00000	 220.0	 4	    1.11000	    0.95000;
	136	 1	 0.0	 0.0	 0.0	 0.0	 1	    1.03000	    0.00000	 220.0	 4	    1.11000	    0.95000;
	137	 1	 0.0	 0.0	 0.0	 0.0	 1	    1.03000	    0.00000	 220.0	 4	    1.11000	    0.95000;
	138	 1	 0.0	 0.0	 0.0	 0.0	 1	    1.00000	    0.00000	 400.0	 4	    1.05000	    0.95000;
	139	 1	 0.0	 0.0	 0.0	 0.0	 1	    1.00000	    0.00000	 400.0	 4	    1.05000	    0.95000;
	140	 1	 0.0	 0.0	 0.0	 0.0	 1	    1.03000	    0.00000	 220.0	 4	    1.11000	    0.95000;
	141	 1	 0.0	 0.0	 0.0	 0.0	 1	    1.03000	    0.00000	 220.0	 4	    1.11000	    0.95000;
	142	 1	 0.0	 0.0	 0.0	 0.0	 1	    1.03000	    0.00000	 220.0	 4	    1.11000	    0.95000;
	143	 1	 0.0	 0.0	 0.0	 0.0	 1	    1.03000	    0.00000	 220.0	 4	    1.11000	    0.95000;
	144	 1	 0.0	 0.0	 0.0	 0.0	 1	    1.03000	    0.00000	 220.0	 4	    1.11000	    0.95000;
	145	 1	 0.0	 0.0	 0.0	 0.0	 1	    1.03000	    0.00000	 220.0	 4	    1.11000	    0.95000;
	146	 2	 10.95	 -0.47	 0.0	 0.0	 1	    1.03000	    0.00000	 220.0	 4	    1.11000	    0.95000;
	147	 2	 10.81	 -0.47	 0.0	 0.0	 1	    1.03000	    0.00000	 220.0	 4	    1.11000	    0.95000;
	148	 2	 11.64	 6.86	 0.0	 0.0	 1	    1.03000	    0.00000	 220.0	 4	    1.11000	    0.95000;
	149	 1	 1.65	 3.04	 0.0	 0.0	 1	    1.03000	    0.00000	 220.0	 4	    1.11000	    0.95000;
	150	 2	 8.09	 -0.38	 0.0	 0.0	 1	    1.00000	    0.00000	 400.0	 4	    1.05000	    0.95000;
	151	 2	 16.17	 -0.76	 0.0	 0.0	 1	    1.00000	    0.00000	 400.0	 4	    1.05000	    0.95000;
	152	 1	 0.0	 0.0	 0.0	 0.0	 1	    1.03000	    0.00000	 220.0	 4	    1.11000	    0.95000;
	153	 1	 0.0	 0.0	 0.0	 0.0	 1	    1.03000	    0.00000	 220.0	 4	    1.11000	    0.95000;
	154	 1	 0.0	 0.0	 0.0	 0.0	 1	    1.03000	    0.00000	 220.0	 4	    1.11000	    0.95000;
	155	 2	 30.55	 -3.56	 0.0	 0.0	 1	    1.03000	    0.00000	 220.0	 4	    1.11000	    0.95000;
	156	 2	 14.68	 -3.57	 0.0	 0.0	 1	    1.03000	    0.00000	 220.0	 4	    1.11000	    0.95000;
	157	 1	 0.0	 0.0	 0.0	 0.0	 1	    1.03000	    0.00000	 220.0	 4	    1.11000	    0.95000;
	158	 1	 0.0	 0.0	 0.0	 0.0	 1	    1.00000	    0.00000	 400.0	 4	    1.05000	    0.95000;
	159	 2	 7.38	 -1.78	 0.0	 0.0	 1	    1.00000	    0.00000	 400.0	 4	    1.05000	    0.95000;
	160	 1	 0.0	 0.0	 0.0	 0.0	 1	    1.03000	    0.00000	 220.0	 4	    1.11000	    0.95000;
	161	 1	 0.0	 0.0	 0.0	 0.0	 1	    1.03000	    0.00000	 220.0	 4	    1.11000	    0.95000;
	162	 1	 0.0	 0.0	 0.0	 0.0	 1	    1.00000	    0.00000	 400.0	 4	    1.05000	    0.95000;
	163	 1	 0.0	 0.0	 0.0	 0.0	 1	    1.00000	    0.00000	 400.0	 4	    1.05000	    0.95000;
	164	 1	 0.0	 0.0	 0.0	 0.0	 1	    1.00000	    0.00000	 400.0	 4	    1.05000	    0.95000;
	165	 2	 4.29	 -8.96	 0.0	 0.0	 1	    1.03000	    0.00000	 220.0	 4	    1.11000	    0.95000;
	166	 2	 23.36	 7.18	 0.0	 0.0	 1	    1.03000	    0.00000	 220.0	 4	    1.11000	    0.95000;
	167	 1	 0.0	 0.0	 0.0	 0.0	 1	    1.03000	    0.00000	 220.0	 4	    1.11000	    0.95000;
	168	 1	 0.0	 0.0	 0.0	 0.0	 1	    1.03000	    0.00000	 220.0	 4	    1.11000	    0.95000;
	169	 1	 0.0	 0.0	 0.0	 0.0	 1	    1.03000	    0.00000	 220.0	 4	    1.11000	    0.95000;
	170	 1	 0.0	 0.0	 0.0	 0.0	 1	    1.03000	    0.00000	 220.0	 4	    1.11000	    0.95000;
	171	 1	 0.0	 0.0	 0.0	 0.0	 1	    1.03000	    0.00000	 220.0	 4	    1.11000	    0.95000;
	172	 1	 0.0	 0.0	 0.0	 0.0	 1	    1.00000	    0.00000	 400.0	 4	    1.05000	    0.95000;
	173	 1	 0.0	 0.0	 0.0	 0.0	 1	    1.00000	    0.00000	 400.0	 4	    1.05000	    0.95000;
	174	 1	 0.0	 0.0	 0.0	 0.0	 1	    1.03000	    0.00000	 220.0	 4	    1.11000	    0.95000;
	175	 1	 0.0	 0.0	 0.0	 0.0	 1	    1.03000	    0.00000	 220.0	 4	    1.11000	    0.95000;
	176	 1	 0.0	 0.0	 0.0	 0.0	 1	    1.03000	    0.00000	 220.0	 4	    1.11000	    0.95000;
	177	 1	 0.0	 0.0	 0.0	 0.0	 1	    1.03000	    0.00000	 220.0	 4	    1.11000	    0.95000;
	178	 1	 0.0	 0.0	 0.0	 0.0	 1	    1.03000	    0.00000	 220.0	 4	    1.11000	    0.95000;
	179	 1	 0.0	 0.0	 0.0	 0.0	 1	    1.03000	    0.00000	 220.0	 4	    1.11000	    0.95000;
	180	 1	 0.0	 0.0	 0.0	 0.0	 1	    1.03000	    0.00000	 220.0	 4	    1.11000	    0.95000;
	181	 1	 0.0	 0.0	 0.0	 0.0	 1	    1.03000	    0.00000	 220.0	 4	    1.11000	    0.95000;
	182	 1	 0.0	 0.0	 0.0	 0.0	 1	    1.03000	    0.00000	 220.0	 5	    1.11000	    0.95000;
	183	 1	 0.0	 0.0	 0.0	 0.0	 1	    1.03000	    0.00000	 220.0	 5	    1.11000	    0.95000;
	184	 1	 0.0	 0.0	 0.0	 0.0	 1	    1.00000	    0.00000	 400.0	 5	    1.05000	    0.95000;
	185	 1	 0.0	 0.0	 0.0	 0.0	 1	    1.00000	    0.00000	 400.0	 5	    1.05000	    0.95000;
	186	 1	 0.0	 0.0	 0.0	 0.0	 1	    1.00000	    0.00000	 400.0	 5	    1.05000	    0.95000;
	187	 1	 0.0	 0.0	 0.0	 0.0	 1	    1.00000	    0.00000	 400.0	 5	    1.05000	    0.95000;
	188	 1	 0.0	 0.0	 0.0	 0.0	 1	    1.03000	    0.00000	 220.0	 5	    1.11000	    0.95000;
	189	 1	 0.0	 0.0	 0.0	 0.0	 1	    1.03000	    0.00000	 220.0	 5	    1.11000	    0.95000;
	190	 1	 0.0	 0.0	 0.0	 0.0	 1	    1.03000	    0.00000	 220.0	 5	    1.11000	    0.95000;
	191	 1	 0.0	 0.0	 0.0	 0.0	 1	    1.03000	    0.00000	 220.0	 5	    1.11000	    0.95000;
	192	 1	 0.0	 0.0	 0.0	 0.0	 1	    1.00000	    0.00000	 400.0	 5	    1.05000	    0.95000;
	193	 1	 0.0	 0.0	 0.0	 0.0	 1	    1.03000	    0.00000	 220.0	 5	    1.11000	    0.95000;
	194	 1	 0.0	 0.0	 0.0	 0.0	 1	    1.03000	    0.00000	 220.0	 5	    1.11000	    0.95000;
	195	 1	 0.0	 0.0	 0.0	 0.0	 1	    1.00000	    0.00000	 400.0	 5	    1.05000	    0.95000;
	196	 1	 0.0	 0.0	 0.0	 0.0	 1	    1.00000	    0.00000	 400.0	 5	    1.05000	    0.95000;
	197	 1	 0.0	 0.0	 0.0	 0.0	 1	    1.03000	    0.00000	 220.0	 5	    1.11000	    0.95000;
	198	 1	 0.0	 0.0	 0.0	 0.0	 1	    1.03000	    0.00000	 220.0	 5	    1.11000	    0.95000;
	199	 1	 0.0	 0.0	 0.0	 0.0	 1	    1.00000	    0.00000	 400.0	 5	    1.05000	    0.95000;
	200	 1	 0.0	 0.0	 0.0	 0.0	 1	    1.00000	    0.00000	 400.0	 5	    1.05000	    0.95000;
...
];

%% generator data
%	bus	Pg	Qg	Qmax	Qmin	Vg	mBase	status	Pmax	Pmin
mpc.gen = [
	17	 361.0	 0.0	 326.0	 -326.0	 1.03	 233.2	 1	 652	 70.0; % COW
	18	 152.5	 1.0	 120.0	 -118.0	 1.03	 233.2	 1	 235	 70.0; % COW
	26	 227.5	 32.5	 220.0	 -155.0	 1.03	 430.5	 1	 310	 145.0; % NG
	26	 269.5	 11.5	 220.0	 -197.0	 1.03	 421.9	 1	 394	 145.0; % NG
	27	 248.5	 22.0	 220.0	 -176.0	 1.03	 421.9	 1	 352	 145.0; % NG
	27	 277.0	 7.5	 220.0	 -205.0	 1.03	 430.5	 1	 409	 145.0; % NG
	27	 298.5	 0.0	 226.0	 -226.0	 1.03	 430.5	 1	 452	 145.0; % NG
	28	 352.5	 0.0	 280.0	 -280.0	 1.0	 430.5	 1	 560	 145.0; % NG
	28	 231.0	 30.5	 220.0	 -159.0	 1.0	 430.5	 1	 317	 145.0; % NG
	28	 303.5	 0.0	 231.0	 -231.0	 1.0	 430.5	 1	 462	 145.0; % COW
	29	 383.5	 0.0	 311.0	 -311.0	 1.0	 430.5	 1	 622	 145.0; % NG
	29	 254.0	 19.0	 220.0	 -182.0	 1.0	 430.5	 1	 363	 145.0; % NG
	29	 252.5	 20.0	 220.0	 -180.0	 1.0	 430.5	 1	 360	 145.0; % NG
	43	 173.75	 0.0	 140.0	 -140.0	 1.03	 246.2	 1	 280	 67.5; % COW
	43	 0.0	 0.0	 120.0	 -20.0	 1.03	 275.3	 0	 6	 135.0; % NG
	43	 308.75	 0.0	 275.0	 -275.0	 1.03	 275.3	 1	 550	 67.5; % COW
	44	 275.75	 0.0	 242.0	 -242.0	 1.03	 255.0	 1	 484	 67.5; % NG
	44	 161.25	 0.0	 128.0	 -128.0	 1.03	 255.0	 1	 255	 67.5; % NG
	44	 0.0	 0.0	 120.0	 -20.0	 1.03	 255.0	 0	 29	 135.0; % NG
	45	 0.0	 0.0	 350.0	 -109.0	 1.0	 610.3	 0	 218	 175.0; % NG
	45	 268.5	 84.5	 350.0	 -181.0	 1.0	 610.3	 1	 362	 175.0; % COW
	55	 138.0	 0.0	 166.8	 -166.8	 1.03	 255.0	 1	 211	 65.0; % NG
	56	 114.5	 19.0	 120.0	 -82.0	 1.03	 255.0	 1	 164	 65.0; % NG
	56	 190.5	 0.0	 158.0	 -158.0	 1.03	 255.0	 1	 316	 65.0; % NG
	57	 175.5	 0.0	 143.0	 -143.0	 1.0	 255.0	 1	 286	 65.0; % NG
	58	 0.0	 0.0	 120.0	 -84.0	 1.0	 255.0	 0	 167	 65.0; % NG
	58	 134.5	 9.0	 120.0	 -102.0	 1.0	 255.0	 1	 204	 65.0; % NG
	58	 151.5	 0.5	 120.0	 -119.0	 1.0	 255.0	 1	 238	 65.0; % NG
	59	 237.125	 0.0	 218.0	 -218.0	 1.03	 85.4	 1	 435	 39.25; % NG
	78	 129.5	 5.0	 105.0	 -95.0	 1.03	 248.3	 1	 189	 70.0; % NG
	78	 288.5	 0.0	 254.0	 -254.0	 1.03	 248.3	 1	 507	 70.0; % NG
	79	 0.0	 0.0	 105.0	 -53.0	 1.03	 243.8	 0	 106	 70.0; % NG
	79	 0.0	 0.0	 105.0	 -16.0	 1.03	 248.3	 0	 31	 140.0; % NG
	79	 298.0	 0.0	 263.0	 -263.0	 1.03	 248.3	 1	 526	 70.0; % COW
	82	 236.5	 5.0	 192.0	 -182.0	 1.0	 425.8	 1	 363	 110.0; % COW
	82	 187.0	 21.0	 174.0	 -132.0	 1.0	 408.9	 1	 264	 110.0; % NG
	104	 160.5	 0.0	 232.8	 -232.8	 1.03	 251.8	 1	 254	 67.0; % NG
	105	 162.5	 0.0	 219.6	 -219.6	 1.03	 251.8	 1	 258	 67.0; % COW
	106	 107.25	 1.0	 90.0	 -88.0	 1.03	 150.0	 1	 175	 39.5; % NG
	107	 93.75	 8.0	 90.0	 -74.0	 1.03	 150.0	 1	 148	 39.5; % NG
	116	 0.0	 0.0	 90.0	 -67.0	 1.03	 150.0	 0	 133	 45.0; % NG
	117	 95.0	 6.0	 90.0	 -78.0	 1.03	 150.0	 1	 155	 35.0; % NG
	118	 77.0	 5.5	 68.0	 -57.0	 1.03	 129.3	 1	 114	 40.0; % NG
	125	 160.5	 0.0	 225.6	 -225.6	 1.03	 242.9	 1	 241	 80.0; % NG
	126	 163.0	 0.0	 128.0	 -128.0	 1.03	 240.2	 1	 256	 70.0; % NG
	126	 0.0	 0.0	 94.0	 -94.0	 1.03	 229.4	 0	 187	 80.0; % NG
	127	 156.0	 0.0	 121.0	 -121.0	 1.0	 238.5	 1	 242	 70.0; % NG
	127	 178.0	 0.0	 138.0	 -138.0	 1.0	 241.7	 1	 276	 80.0; % NG
	132	 97.0	 0.0	 79.0	 -79.0	 1.03	 131.2	 1	 157	 37.0; % NG
	132	 122.0	 0.0	 104.0	 -104.0	 1.03	 131.2	 1	 207	 37.0; % NG
	133	 0.0	 0.0	 40.0	 -38.0	 1.03	 131.2	 0	 72	 37.0; % NG
	133	 95.0	 0.0	 77.0	 -77.0	 1.03	 131.2	 1	 153	 37.0; % COW
	134	 0.0	 0.0	 90.0	 -7.0	 1.03	 150.0	 0	 13	 102.0; % NG
	134	 141.0	 0.0	 116.0	 -116.0	 1.03	 150.0	 1	 232	 50.0; % NG
	135	 0.0	 0.0	 90.0	 -42.0	 1.03	 150.0	 0	 84	 51.0; % NG
	146	 92.5	 0.0	 85.0	 -85.0	 1.03	 51.4	 1	 170	 15.0; % NG
	146	 35.0	 0.0	 28.0	 -28.0	 1.03	 51.4	 1	 55	 15.0; % NG
	147	 0.0	 0.0	 90.0	 -47.0	 1.03	 150.0	 0	 94	 45.0; % NG
	148	 155.5	 0.0	 133.0	 -133.0	 1.03	 252.4	 1	 266	 45.0; % NG
	148	 0.0	 0.0	 120.0	 -8.0	 1.03	 237.5	 0	 16	 135.0; % NG
	148	 0.0	 0.0	 120.0	 -7.0	 1.03	 237.5	 0	 13	 135.0; % NG
	148	 75.0	 33.5	 120.0	 -53.0	 1.03	 252.4	 1	 105	 45.0; % NG
	150	 139.0	 1.5	 120.0	 -117.0	 1.0	 252.4	 1	 233	 45.0; % NG
	151	 153.0	 0.0	 131.0	 -131.0	 1.0	 252.4	 1	 261	 45.0; % NG
	151	 165.0	 0.0	 143.0	 -143.0	 1.0	 252.4	 1	 285	 45.0; % NG
	155	 184.0	 0.0	 161.0	 -161.0	 1.03	 263.9	 1	 321	 47.0; % NG
	155	 98.5	 22.5	 120.0	 -75.0	 1.03	 263.9	 1	 150	 47.0; % NG
	155	 0.0	 0.0	 120.0	 -63.0	 1.03	 237.5	 0	 126	 65.0; % NG
	155	 223.0	 0.0	 197.0	 -197.0	 1.03	 287.3	 1	 394	 52.0; % NG
	156	 0.0	 0.0	 120.0	 -42.0	 1.03	 237.5	 0	 83	 65.0; % NG
	156	 136.5	 8.0	 120.0	 -104.0	 1.03	 237.5	 1	 208	 65.0; % COW
	156	 167.0	 0.0	 137.0	 -137.0	 1.03	 238.4	 1	 274	 60.0; % NG
	156	 125.0	 12.5	 120.0	 -95.0	 1.03	 238.4	 1	 190	 60.0; % NG
	159	 98.5	 11.4	 120.0	 -97.2	 1.0	 238.4	 1	 137	 60.0; % COW
	165	 134.5	 11.5	 120.0	 -97.0	 1.03	 233.2	 1	 194	 75.0; % NG
	165	 146.5	 5.5	 120.0	 -109.0	 1.03	 233.2	 1	 218	 75.0; % NG
	166	 126.0	 15.5	 120.0	 -89.0	 1.03	 233.2	 1	 177	 75.0; % NG
	166	 280.5	 0.0	 243.0	 -243.0	 1.03	 233.2	 1	 486	 75.0; % NG
	205	 122.5	 11.0	 110.0	 -88.0	 1.0	 210.1	 1	 175	 70.0; % NG
	205	 179.5	 0.0	 145.0	 -145.0	 1.0	 210.1	 1	 289	 70.0; % NG
	205	 0.0	 0.0	 110.0	 -75.0	 1.0	 210.1	 0	 149	 70.0; % NG
	206	 160.0	 0.0	 125.0	 -125.0	 1.0	 210.1	 1	 250	 70.0; % COW
	215	 62.76975	 0.0	 54.0	 -54.0	 1.035	 58.5	 1	 107	 18.5395; % NG
	215	 74.427	 0.0	 66.0	 -66.0	 1.035	 53.9	 1	 132	 16.854; % NG
	215	 39.927	 0.0	 32.0	 -32.0	 1.035	 53.9	 1	 63	 16.854; % NG
	215	 20.8765	 1.5	 20.0	 -17.0	 1.035	 30.5	 1	 34	 7.753; % PEL
	239	 88.0	 0.0	 87.0	 -87.0	 1.035	 15.4	 1	 174	 2.0; % NG
	246	 240.5	 -2.2	 220.0	 -224.4	 1.035	 430.5	 1	 336	 145.0; % NG
	291	 11.5	 0.0	 11.0	 -11.0	 1.035	 3.2	 1	 22	 1.0; % PEL
	294	 51.25	 0.0	 51.0	 -51.0	 1.035	 4.8	 1	 101	 1.5; % NG
	306	 30.29175	 0.0	 28.0	 -28.0	 1.035	 24.0	 1	 56	 4.5835; % NG
	306	 52.074	 0.0	 48.0	 -48.0	 1.035	 27.9	 1	 96	 8.148; % PEL
	306	 50.801	 0.0	 48.0	 -48.0	 1.035	 31.0	 1	 96	 5.602; % PEL
	306	 22.29175	 0.0	 20.0	 -20.0	 1.035	 26.9	 1	 40	 4.5835; % NG
	306	 35.29175	 0.0	 33.0	 -33.0	 1.035	 28.1	 1	 66	 4.5835; % NG
	307	 112.625	 0.0	 104.0	 -104.0	 1.035	 57.0	 1	 207	 18.25; % PEL
	307	 68.625	 0.0	 60.0	 -60.0	 1.035	 57.0	 1	 119	 18.25; % NG
	308	 34.5	 0.0	 27.0	 -27.0	 1.035	 36.7	 1	 53	 16.0; % NG
	308	 57.5	 0.0	 48.0	 -48.0	 1.035	 57.7	 1	 95	 20.0; % NG
	310	 40.75	 0.0	 32.0	 -32.0	 1.035	 53.9	 1	 64	 17.5; % PEL
	310	 70.25	 0.0	 52.0	 -52.0	 1.035	 103.6	 1	 103	 37.5; % PEL
	311	 74.25	 0.0	 63.0	 -63.0	 1.035	 64.0	 1	 126	 22.5; % NG
	362	 50.95	 0.0	 42.0	 -42.0	 1.035	 47.8	 1	 83	 18.9; % COW
	363	 126.95	 0.0	 118.0	 -118.0	 1.035	 47.8	 1	 235	 18.9; % NG
	364	 55.95	 0.0	 47.0	 -47.0	 1.035	 47.8	 1	 93	 18.9; % NG
	364	 55.25	 0.0	 44.0	 -44.0	 1.035	 71.0	 1	 88	 22.5; % NG
	365	 87.45	 0.0	 78.0	 -78.0	 1.035	 47.8	 1	 156	 18.9; % NG
	365	 47.95	 0.0	 39.0	 -39.0	 1.035	 47.8	 1	 77	 18.9; % PEL
	382	 44.75	 0.0	 41.0	 -41.0	 1.035	 55.9	 1	 82	 7.5; % PEL
	382	 105.0	 22.5	 120.0	 -75.0	 1.035	 255.9	 1	 150	 60.0; % NG
	383	 21.75	 0.0	 18.0	 -18.0	 1.035	 55.9	 1	 36	 7.5; % NG
	386	 15.75	 0.0	 20.4	 -20.4	 1.035	 4.8	 1	 30	 1.5; % NG
	421	 28.5	 0.0	 28.0	 -28.0	 1.035	 7.7	 1	 55	 2.0; % PEL
	431	 30.75	 0.0	 29.0	 -29.0	 1.035	 13.6	 1	 58	 3.5; % PEL
	440	 13.125	 0.0	 15.6	 -15.6	 1.035	 3.6	 1	 25	 1.25; % NG
	447	 14.375	 3.0	 20.0	 -14.0	 1.035	 21.3	 1	 27	 1.75; % NG
	447	 27.375	 0.0	 27.0	 -27.0	 1.035	 21.3	 1	 53	 1.75; % NG
	463	 0.0	 0.0	 9.6	 -9.6	 1.035	 4.0	 1	 0	 0.0; % SYNC
	482	 16.85	 0.0	 24.0	 -24.0	 1.035	 1.7	 1	 33	 0.7; % NG
	490	 53.875	 0.0	 53.0	 -53.0	 1.035	 5.3	 1	 106	 1.75; % NG
	522	 0.0	 0.0	 31.2	 -31.2	 1.035	 1.9	 1	 0	 0.0; % SYNC
	533	 14.625	 0.0	 15.0	 -15.0	 1.035	 1.9	 1	 29	 0.25; % PEL
	534	 40.4725	 0.0	 32.0	 -32.0	 1.035	 53.9	 1	 63	 17.945; % PEL
	534	 35.5215	 0.0	 30.0	 -30.0	 1.035	 34.9	 1	 60	 11.043; % PEL
	534	 53.0215	 0.0	 48.0	 -48.0	 1.035	 34.9	 1	 95	 11.043; % NG
	534	 86.61725	 0.0	 69.0	 -69.0	 1.035	 107.7	 1	 137	 36.2345; % NG
	534	 94.11725	 0.0	 76.0	 -76.0	 1.035	 107.7	 1	 152	 36.2345; % PEL
	535	 69.64325	 0.0	 64.0	 -64.0	 1.035	 36.5	 1	 127	 12.2865; % PEL
	535	 39.45125	 0.0	 34.0	 -34.0	 1.035	 35.6	 1	 67	 11.9025; % NG
	535	 109.9975	 0.0	 86.0	 -86.0	 1.035	 128.1	 1	 172	 47.995; % NG
	535	 79.65775	 0.0	 60.0	 -60.0	 1.035	 108.7	 1	 119	 40.3155; % NG
	549	 80.35	 0.0	 80.0	 -80.0	 1.035	 1.7	 1	 160	 0.7; % PEL
	557	 58.431	 0.0	 52.0	 -52.0	 1.035	 34.4	 1	 104	 12.862; % NG
	557	 40.796	 0.0	 36.0	 -36.0	 1.035	 28.5	 1	 71	 10.592; % PEL
	557	 23.91775	 0.0	 19.0	 -19.0	 1.035	 26.5	 1	 38	 9.8355; % PEL
	557	 55.17425	 0.0	 50.0	 -50.0	 1.035	 30.4	 1	 99	 11.3485; % NG
	557	 40.431	 0.0	 34.0	 -34.0	 1.035	 34.4	 1	 68	 12.862; % NG
	558	 38.758	 0.0	 31.0	 -31.0	 1.035	 34.4	 1	 62	 15.516; % COW
	558	 120.758	 0.0	 113.0	 -113.0	 1.035	 34.4	 1	 226	 15.516; % NG
	558	 45.70425	 0.0	 40.0	 -40.0	 1.035	 26.5	 1	 80	 11.4085; % PEL
	558	 37.52975	 0.0	 30.0	 -30.0	 1.035	 34.4	 1	 60	 15.0595; % PEL
	594	 14.145	 0.0	 14.0	 -14.0	 1.035	 4.5	 1	 27	 1.29; % PEL
	601	 22.7625	 0.0	 22.0	 -22.0	 1.035	 5.5	 1	 43	 2.525; % NG
	622	 204.0	 0.0	 177.0	 -177.0	 1.035	 114.0	 1	 353	 55.0; % NG
	622	 0.0	 0.0	 30.0	 0.0	 1.035	 65.3	 0	 0	 0.0; % SYNC
	626	 15.2	 0.0	 15.0	 -15.0	 1.035	 3.0	 1	 29	 1.4; % PEL
	630	 41.9025	 0.0	 41.0	 -41.0	 1.035	 6.4	 1	 81	 2.805; % NG
	631	 29.1825	 0.0	 28.0	 -28.0	 1.035	 7.4	 1	 55	 3.365; % PEL
	655	 36.3075	 0.0	 36.0	 -36.0	 1.035	 1.3	 1	 72	 0.615; % NG
	660	 126.25	 13.5	 120.0	 -93.0	 1.035	 255.0	 1	 185	 67.5; % NG
	661	 200.25	 0.0	 167.0	 -167.0	 1.035	 255.0	 1	 333	 67.5; % NG
	667	 24.4775	 0.0	 24.0	 -24.0	 1.035	 2.2	 1	 48	 0.955; % PEL
	671	 17.3825	 0.0	 15.0	 -15.0	 1.035	 10.1	 1	 30	 4.765; % NG
	673	 21.84	 0.0	 21.0	 -21.0	 1.035	 4.4	 1	 42	 1.68; % PEL
	681	 198.5	 0.0	 151.0	 -151.0	 1.035	 192.4	 1	 302	 95.0; % NG
	681	 26.2495	 5.0	 30.0	 -20.0	 1.035	 77.5	 1	 40	 12.499; % PEL
	687	 14.8025	 0.0	 12.0	 -12.0	 1.035	 12.5	 1	 24	 5.605; % NG
	699	 42.1825	 0.0	 41.0	 -41.0	 1.035	 7.5	 1	 81	 3.365; % NG
	702	 6.78	 0.0	 7.0	 -7.0	 1.035	 1.6	 1	 13	 0.56; % NG
	712	 32.0	 0.0	 30.0	 -30.0	 1.035	 10.8	 1	 59	 5.0; % NG
	718	 57.3925	 0.0	 57.0	 -57.0	 1.035	 1.9	 1	 114	 0.785; % NG
	722	 17.7	 0.0	 17.0	 -17.0	 1.035	 3.0	 1	 34	 1.4; % NG
	731	 15.42	 0.0	 24.0	 -24.0	 1.035	 4.3	 1	 30	 0.84; % PEL
	736	 103.0	 24.5	 120.0	 -71.0	 1.035	 255.0	 1	 141	 65.0; % NG
	740	 19.06	 0.0	 19.0	 -19.0	 1.035	 4.3	 1	 37	 1.12; % PEL
	747	 31.4575	 0.0	 30.0	 -30.0	 1.035	 6.7	 1	 60	 2.915; % NG
	759	 201.5	 0.0	 179.0	 -179.0	 1.035	 105.2	 1	 358	 45.0; % NG
	760	 0.0	 0.0	 0.0	 0.0	 1.035	 1.3	 0	 0	 0.0; % SYNC
	778	 43.085	 0.0	 40.0	 -40.0	 1.035	 32.4	 1	 80	 6.17; % PEL
	780	 8.92	 0.0	 9.0	 -9.0	 1.035	 1.9	 1	 17	 0.84; % PEL
	783	 18.5	 0.0	 17.0	 -17.0	 1.035	 6.7	 1	 34	 3.0; % NG
	788	 46.0	 0.0	 46.0	 -46.0	 1.035	 95.9	 1	 91	 1.0; % PEL
	792	 32.0	 0.0	 32.0	 -32.0	 1.035	 71.8	 1	 64	 0.0; % PEL
	792	 0.0	 0.0	 29.0	 -29.0	 1.035	 71.8	 0	 58	 0.0; % PEL
	792	 0.0	 0.0	 11.0	 -6.0	 1.035	 23.7	 0	 11	 0.0; % NG
	792	 0.0	 0.0	 15.0	 -15.0	 1.035	 23.3	 0	 30	 0.0; % PEL
	803	 28.5	 0.0	 29.0	 -29.0	 1.035	 55.9	 1	 57	 0.0; % NG
	804	 33.5	 0.0	 34.0	 -34.0	 1.035	 120.4	 1	 67	 0.0; % NG
	809	 0.0	 0.0	 0.0	 0.0	 1.035	 3.3	 0	 0	 0.0; % SYNC
	815	 18.84	 0.0	 18.0	 -18.0	 1.035	 3.9	 1	 36	 1.68; % PEL
	834	 24.28	 0.0	 24.0	 -24.0	 1.035	 1.5	 1	 48	 0.56; % PEL
	840	 90.0	 0.0	 83.0	 -83.0	 1.035	 51.6	 1	 165	 15.0; % PEL
	840	 77.0	 0.0	 70.0	 -70.0	 1.035	 51.6	 1	 139	 15.0; % PEL
	844	 12.975	 0.0	 13.0	 -13.0	 1.035	 3.5	 1	 25	 0.95; % PEL
	848	 28.7525	 0.0	 28.0	 -28.0	 1.035	 5.6	 1	 56	 1.505; % NG
	854	 61.25	 0.0	 60.0	 -60.0	 1.035	 14.6	 1	 119	 3.5; % COW
	873	 86.5	 0.0	 70.0	 -70.0	 1.035	 87.7	 1	 139	 34.0; % PEL
	876	 0.0	 0.0	 0.0	 0.0	 1.035	 1.9	 0	 0	 0.0; % SYNC
	896	 0.0	 0.0	 45.0	 -10.0	 1.035	 65.8	 0	 0	 0.0; % SYNC
	896	 0.0	 0.0	 45.0	 -10.0	 1.035	 71.1	 0	 0	 0.0; % SYNC
	896	 50.75	 4.0	 45.0	 -37.0	 1.035	 71.1	 1	 74	 27.5; % PEL
	902	 39.52775	 0.0	 40.0	 -40.0	 1.035	 0.3	 1	 79	 0.0555; % NG
	903	 0.0	 0.0	 0.0	 0.0	 1.035	 2.5	 0	 0	 0.0; % SYNC
	952	 18.65	 0.0	 18.0	 -18.0	 1.035	 3.0	 1	 36	 1.3; % PEL
	958	 0.0	 0.0	 0.0	 0.0	 1.035	 2.5	 0	 0	 0.0; % SYNC
	972	 36.75	 1.0	 32.0	 -30.0	 1.035	 54.0	 1	 60	 13.5; % PEL
	972	 0.0	 0.0	 32.0	 -0.0	 1.035	 42.5	 0	 0	 0.0; % SYNC
	972	 17.25	 0.0	 17.0	 -17.0	 1.035	 11.4	 1	 33	 1.5; % PEL
	972	 180.0	 0.0	 160.0	 -160.0	 1.035	 162.2	 1	 320	 40.0; % NG
	973	 83.5	 23.0	 110.0	 -64.0	 1.035	 162.2	 1	 127	 40.0; % PEL
...
];

%% generator cost data
%	2	startup	shutdown	n	c(n-1)	...	c0
mpc.gencost = [
	2	 0.0	 0.0	 3	   0.000000	 112.780000	   0.000000; % COW
	2	 0.0	 0.0	 3	   0.000000	 112.780000	   0.000000; % COW
	2	 0.0	 0.0	 3	   0.000000	  76.100000	   0.000000; % NG
	2	 0.0	 0.0	 3	   0.000000	  76.100000	   0.000000; % NG
	2	 0.0	 0.0	 3	   0.000000	  76.100000	   0.000000; % NG
	2	 0.0	 0.0	 3	   0.000000	  76.100000	   0.000000; % NG
	2	 0.0	 0.0	 3	   0.000000	  76.100000	   0.000000; % NG
	2	 0.0	 0.0	 3	   0.000000	  76.100000	   0.000000; % NG
	2	 0.0	 0.0	 3	   0.000000	  76.100000	   0.000000; % NG
	2	 0.0	 0.0	 3	   0.000000	  76.100000	   0.000000; % COW
	2	 0.0	 0.0	 3	   0.000000	  76.100000	   0.000000; % NG
	2	 0.0	 0.0	 3	   0.000000	  76.100000	   0.000000; % NG
	2	 0.0	 0.0	 3	   0.000000	  76.100000	   0.000000; % NG
	2	 0.0	 0.0	 3	   0.000000	 102.050000	   0.000000; % COW
	2	 0.0	 0.0	 3	   0.000000	 102.050000	   0.000000; % NG
	2	 0.0	 0.0	 3	   0.000000	 102.050000	   0.000000; % COW
	2	 0.0	 0.0	 3	   0.000000	 102.050000	   0.000000; % NG
	2	 0.0	 0.0	 3	   0.000000	 102.050000	   0.000000; % NG
	2	 0.0	 0.0	 3	   0.000000	 102.050000	   0.000000; % NG
	2	 0.0	 0.0	 3	   0.000000	 102.050000	   0.000000; % NG
	2	 0.0	 0.0	 3	   0.000000	 102.050000	   0.000000; % COW
	2	 0.0	 0.0	 3	   0.000000	 105.350000	   0.000000; % NG
	2	 0.0	 0.0	 3	   0.000000	 105.350000	   0.000000; % NG
	2	 0.0	 0.0	 3	   0.000000	 105.350000	   0.000000; % NG
	2	 0.0	 0.0	 3	   0.000000	 105.350000	   0.000000; % NG
	2	 0.0	 0.0	 3	   0.000000	 105.350000	   0.000000; % NG
	2	 0.0	 0.0	 3	   0.000000	 105.350000	   0.000000; % NG
	2	 0.0	 0.0	 3	   0.000000	 105.350000	   0.000000; % NG
	2	 0.0	 0.0	 3	   0.000000	   0.000000	   0.000000; % NG
	2	 0.0	 0.0	 3	   0.000000	  95.310000	   0.000000; % NG
	2	 0.0	 0.0	 3	   0.000000	  95.310000	   0.000000; % NG
	2	 0.0	 0.0	 3	   0.000000	  95.310000	   0.000000; % NG
	2	 0.0	 0.0	 3	   0.000000	  95.310000	   0.000000; % NG
	2	 0.0	 0.0	 3	   0.000000	  95.310000	   0.000000; % COW
	2	 0.0	 0.0	 3	   0.000000	  90.030000	   0.000000; % COW
	2	 0.0	 0.0	 3	   0.000000	  90.030000	   0.000000; % NG
	2	 0.0	 0.0	 3	   0.000000	  92.780000	   0.000000; % NG
	2	 0.0	 0.0	 3	   0.000000	  92.780000	   0.000000; % COW
	2	 0.0	 0.0	 3	   0.000000	  94.090000	   0.000000; % NG
	2	 0.0	 0.0	 3	   0.000000	  94.090000	   0.000000; % NG
	2	 0.0	 0.0	 3	   0.000000	  97.120000	   0.000000; % NG
	2	 0.0	 0.0	 3	   0.000000	  97.120000	   0.000000; % NG
	2	 0.0	 0.0	 3	   0.000000	  99.520000	   0.000000; % NG
	2	 0.0	 0.0	 3	   0.000000	  91.160000	   0.000000; % NG
	2	 0.0	 0.0	 3	   0.000000	  91.160000	   0.000000; % NG
	2	 0.0	 0.0	 3	   0.000000	  91.160000	   0.000000; % NG
	2	 0.0	 0.0	 3	   0.000000	  91.160000	   0.000000; % NG
	2	 0.0	 0.0	 3	   0.000000	  91.160000	   0.000000; % NG
	2	 0.0	 0.0	 3	   0.000000	   0.010000	   0.000000; % NG
	2	 0.0	 0.0	 3	   0.000000	   0.010000	   0.000000; % NG
	2	 0.0	 0.0	 3	   0.000000	   0.010000	   0.000000; % NG
	2	 0.0	 0.0	 3	   0.000000	   0.010000	   0.000000; % COW
	2	 0.0	 0.0	 3	   0.000000	  92.430000	   0.000000; % NG
	2	 0.0	 0.0	 3	   0.000000	  92.430000	   0.000000; % NG
	2	 0.0	 0.0	 3	   0.000000	  92.430000	   0.000000; % NG
	2	 0.0	 0.0	 3	   0.000000	  96.420000	   0.000000; % NG
	2	 0.0	 0.0	 3	   0.000000	  96.420000	   0.000000; % NG
	2	 0.0	 0.0	 3	   0.000000	  96.420000	   0.000000; % NG
	2	 0.0	 0.0	 3	   0.000000	 116.010000	   0.000000; % NG
	2	 0.0	 0.0	 3	   0.000000	 116.010000	   0.000000; % NG
	2	 0.0	 0.0	 3	   0.000000	 116.010000	   0.000000; % NG
	2	 0.0	 0.0	 3	   0.000000	 116.010000	   0.000000; % NG
	2	 0.0	 0.0	 3	   0.000000	 116.010000	   0.000000; % NG
	2	 0.0	 0.0	 3	   0.000000	 116.010000	   0.000000; % NG
	2	 0.0	 0.0	 3	   0.000000	 116.010000	   0.000000; % NG
	2	 0.0	 0.0	 3	   0.000000	  98.840000	   0.000000; % NG
	2	 0.0	 0.0	 3	   0.000000	  98.840000	   0.000000; % NG
	2	 0.0	 0.0	 3	   0.000000	  98.840000	   0.000000; % NG
	2	 0.0	 0.0	 3	   0.000000	  98.840000	   0.000000; % NG
	2	 0.0	 0.0	 3	   0.000000	  98.840000	   0.000000; % NG
	2	 0.0	 0.0	 3	   0.000000	  98.840000	   0.000000; % COW
	2	 0.0	 0.0	 3	   0.000000	  98.840000	   0.000000; % NG
	2	 0.0	 0.0	 3	   0.000000	  98.840000	   0.000000; % NG
	2	 0.0	 0.0	 3	   0.000000	  98.840000	   0.000000; % COW
	2	 0.0	 0.0	 3	   0.000000	  89.220000	   0.000000; % NG
	2	 0.0	 0.0	 3	   0.000000	  89.220000	   0.000000; % NG
	2	 0.0	 0.0	 3	   0.000000	  89.220000	   0.000000; % NG
	2	 0.0	 0.0	 3	   0.000000	  89.220000	   0.000000; % NG
	2	 0.0	 0.0	 3	   0.000000	   0.010000	   0.000000; % NG
	2	 0.0	 0.0	 3	   0.000000	   0.010000	   0.000000; % NG
	2	 0.0	 0.0	 3	   0.000000	   0.010000	   0.000000; % NG
	2	 0.0	 0.0	 3	   0.000000	   0.010000	   0.000000; % COW
	2	 0.0	 0.0	 3	   0.000000	   0.000000	   0.000000; % NG
	2	 0.0	 0.0	 3	   0.000000	   0.000000	   0.000000; % NG
	2	 0.0	 0.0	 3	   0.000000	   0.000000	   0.000000; % NG
	2	 0.0	 0.0	 3	   0.000000	   0.000000	   0.000000; % PEL
	2	 0.0	 0.0	 3	   0.000000	   0.000000	   0.000000; % NG
	2	 0.0	 0.0	 3	   0.000000	  76.100000	   0.000000; % NG
	2	 0.0	 0.0	 3	   0.000000	   0.000000	   0.000000; % PEL
	2	 0.0	 0.0	 3	   0.000000	   0.000000	   0.000000; % NG
	2	 0.0	 0.0	 3	   0.000000	   0.000000	   0.000000; % NG
	2	 0.0	 0.0	 3	   0.000000	   0.000000	   0.000000; % PEL
	2	 0.0	 0.0	 3	   0.000000	   0.000000	   0.000000; % PEL
	2	 0.0	 0.0	 3	   0.000000	   0.000000	   0.000000; % NG
	2	 0.0	 0.0	 3	   0.000000	   0.000000	   0.000000; % NG
	2	 0.0	 0.0	 3	   0.000000	   0.000000	   0.000000; % PEL
	2	 0.0	 0.0	 3	   0.000000	   0.000000	   0.000000; % NG
	2	 0.0	 0.0	 3	   0.000000	   0.000000	   0.000000; % NG
	2	 0.0	 0.0	 3	   0.000000	   0.000000	   0.000000; % NG
	2	 0.0	 0.0	 3	   0.000000	   0.000000	   0.000000; % PEL
	2	 0.0	 0.0	 3	   0.000000	   0.000000	   0.000000; % PEL
	2	 0.0	 0.0	 3	   0.000000	   0.000000	   0.000000; % NG
	2	 0.0	 0.0	 3	   0.000000	   0.000000	   0.000000; % COW
	2	 0.0	 0.0	 3	   0.000000	   0.000000	   0.000000; % NG
	2	 0.0	 0.0	 3	   0.000000	   0.000000	   0.000000; % NG
	2	 0.0	 0.0	 3	   0.000000	   0.000000	   0.000000; % NG
	2	 0.0	 0.0	 3	   0.000000	   0.000000	   0.000000; % NG
	2	 0.0	 0.0	 3	   0.000000	   0.000000	   0.000000; % PEL
	2	 0.0	 0.0	 3	   0.000000	 112.780000	   0.000000; % PEL
	2	 0.0	 0.0	 3	   0.000000	 112.780000	   0.000000; % NG
	2	 0.0	 0.0	 3	   0.000000	 112.780000	   0.000000; % NG
	2	 0.0	 0.0	 3	   0.000000	   0.000000	   0.000000; % NG
	2	 0.0	 0.0	 3	   0.000000	   0.000000	   0.000000; % PEL
	2	 0.0	 0.0	 3	   0.000000	   0.000000	   0.000000; % PEL
	2	 0.0	 0.0	 3	   0.000000	   0.000000	   0.000000; % NG
	2	 0.0	 0.0	 3	   0.000000	   0.000000	   0.000000; % NG
	2	 0.0	 0.0	 3	   0.000000	   0.000000	   0.000000; % NG
	2	 0.0	 0.0	 3	   0.000000	   0.000000	   0.000000; % SYNC
	2	 0.0	 0.0	 3	   0.000000	   0.000000	   0.000000; % NG
	2	 0.0	 0.0	 3	   0.000000	   0.000000	   0.000000; % NG
	2	 0.0	 0.0	 3	   0.000000	   0.000000	   0.000000; % SYNC
	2	 0.0	 0.0	 3	   0.000000	   0.000000	   0.000000; % PEL
	2	 0.0	 0.0	 3	   0.000000	   0.000000	   0.000000; % PEL
	2	 0.0	 0.0	 3	   0.000000	   0.000000	   0.000000; % PEL
	2	 0.0	 0.0	 3	   0.000000	   0.000000	   0.000000; % NG
	2	 0.0	 0.0	 3	   0.000000	   0.000000	   0.000000; % NG
	2	 0.0	 0.0	 3	   0.000000	   0.000000	   0.000000; % PEL
	2	 0.0	 0.0	 3	   0.000000	   0.000000	   0.000000; % PEL
	2	 0.0	 0.0	 3	   0.000000	   0.000000	   0.000000; % NG
	2	 0.0	 0.0	 3	   0.000000	   0.000000	   0.000000; % NG
	2	 0.0	 0.0	 3	   0.000000	   0.000000	   0.000000; % NG
	2	 0.0	 0.0	 3	   0.000000	   0.000000	   0.000000; % PEL
	2	 0.0	 0.0	 3	   0.000000	   0.000000	   0.000000; % NG
	2	 0.0	 0.0	 3	   0.000000	   0.000000	   0.000000; % PEL
	2	 0.0	 0.0	 3	   0.000000	   0.000000	   0.000000; % PEL
	2	 0.0	 0.0	 3	   0.000000	   0.000000	   0.000000; % NG
	2	 0.0	 0.0	 3	   0.000000	   0.000000	   0.000000; % NG
	2	 0.0	 0.0	 3	   0.000000	   0.000000	   0.000000; % COW
	2	 0.0	 0.0	 3	   0.000000	   0.000000	   0.000000; % NG
	2	 0.0	 0.0	 3	   0.000000	   0.000000	   0.000000; % PEL
	2	 0.0	 0.0	 3	   0.000000	   0.000000	   0.000000; % PEL
	2	 0.0	 0.0	 3	   0.000000	   0.000000	   0.000000; % PEL
	2	 0.0	 0.0	 3	   0.000000	   0.000000	   0.000000; % NG
	2	 0.0	 0.0	 3	   0.000000	   0.000000	   0.000000; % NG
	2	 0.0	 0.0	 3	   0.000000	   0.000000	   0.000000; % SYNC
	2	 0.0	 0.0	 3	   0.000000	   0.000000	   0.000000; % PEL
	2	 0.0	 0.0	 3	   0.000000	   0.000000	   0.000000; % NG
	2	 0.0	 0.0	 3	   0.000000	   0.000000	   0.000000; % PEL
	2	 0.0	 0.0	 3	   0.000000	   0.000000	   0.000000; % NG
	2	 0.0	 0.0	 3	   0.000000	 102.050000	   0.000000; % NG
	2	 0.0	 0.0	 3	   0.000000	 102.050000	   0.000000; % NG
	2	 0.0	 0.0	 3	   0.000000	   0.000000	   0.000000; % PEL
	2	 0.0	 0.0	 3	   0.000000	   0.000000	   0.000000; % NG
	2	 0.0	 0.0	 3	   0.000000	   0.000000	   0.000000; % PEL
	2	 0.0	 0.0	 3	   0.000000	   0.000000	   0.000000; % NG
	2	 0.0	 0.0	 3	   0.000000	   0.000000	   0.000000; % PEL
	2	 0.0	 0.0	 3	   0.000000	   0.000000	   0.000000; % NG
	2	 0.0	 0.0	 3	   0.000000	   0.000000	   0.000000; % NG
	2	 0.0	 0.0	 3	   0.000000	   0.000000	   0.000000; % NG
	2	 0.0	 0.0	 3	   0.000000	   0.000000	   0.000000; % NG
	2	 0.0	 0.0	 3	   0.000000	   0.000000	   0.000000; % NG
	2	 0.0	 0.0	 3	   0.000000	   0.000000	   0.000000; % NG
	2	 0.0	 0.0	 3	   0.000000	   0.000000	   0.000000; % PEL
	2	 0.0	 0.0	 3	   0.000000	 105.350000	   0.000000; % NG
	2	 0.0	 0.0	 3	   0.000000	   0.000000	   0.000000; % PEL
	2	 0.0	 0.0	 3	   0.000000	   0.000000	   0.000000; % NG
	2	 0.0	 0.0	 3	   0.000000	   0.000000	   0.000000; % NG
	2	 0.0	 0.0	 3	   0.000000	   0.000000	   0.000000; % SYNC
	2	 0.0	 0.0	 3	   0.000000	   0.000000	   0.000000; % PEL
	2	 0.0	 0.0	 3	   0.000000	   0.000000	   0.000000; % PEL
	2	 0.0	 0.0	 3	   0.000000	   0.000000	   0.000000; % NG
	2	 0.0	 0.0	 3	   0.000000	   0.000000	   0.000000; % PEL
	2	 0.0	 0.0	 3	   0.000000	   0.010000	   0.000000; % PEL
	2	 0.0	 0.0	 3	   0.000000	   0.010000	   0.000000; % PEL
	2	 0.0	 0.0	 3	   0.000000	   0.010000	   0.000000; % NG
	2	 0.0	 0.0	 3	   0.000000	   0.010000	   0.000000; % PEL
	2	 0.0	 0.0	 3	   0.000000	 111.630000	   0.000000; % NG
	2	 0.0	 0.0	 3	   0.000000	 111.630000	   0.000000; % NG
	2	 0.0	 0.0	 3	   0.000000	   0.000000	   0.000000; % SYNC
	2	 0.0	 0.0	 3	   0.000000	   0.000000	   0.000000; % PEL
	2	 0.0	 0.0	 3	   0.000000	   0.000000	   0.000000; % PEL
	2	 0.0	 0.0	 3	   0.000000	   0.000000	   0.000000; % PEL
	2	 0.0	 0.0	 3	   0.000000	   0.000000	   0.000000; % PEL
	2	 0.0	 0.0	 3	   0.000000	   0.000000	   0.000000; % PEL
	2	 0.0	 0.0	 3	   0.000000	   0.000000	   0.000000; % NG
	2	 0.0	 0.0	 3	   0.000000	   0.000000	   0.000000; % COW
	2	 0.0	 0.0	 3	   0.000000	   0.000000	   0.000000; % PEL
	2	 0.0	 0.0	 3	   0.000000	   0.000000	   0.000000; % SYNC
	2	 0.0	 0.0	 3	   0.000000	   0.000000	   0.000000; % SYNC
	2	 0.0	 0.0	 3	   0.000000	   0.000000	   0.000000; % SYNC
	2	 0.0	 0.0	 3	   0.000000	   0.000000	   0.000000; % PEL
	2	 0.0	 0.0	 3	   0.000000	   0.000000	   0.000000; % NG
	2	 0.0	 0.0	 3	   0.000000	   0.000000	   0.000000; % SYNC
	2	 0.0	 0.0	 3	   0.000000	   0.000000	   0.000000; % PEL
	2	 0.0	 0.0	 3	   0.000000	   0.000000	   0.000000; % SYNC
	2	 0.0	 0.0	 3	   0.000000	   0.000000	   0.000000; % PEL
	2	 0.0	 0.0	 3	   0.000000	   0.000000	   0.000000; % SYNC
	2	 0.0	 0.0	 3	   0.000000	   0.000000	   0.000000; % PEL
	2	 0.0	 0.0	 3	   0.000000	   0.000000	   0.000000; % NG
	2	 0.0	 0.0	 3	   0.000000	   0.000000	   0.000000; % PEL
...
];

%% branch data
%	fbus	tbus	r	x	b	rateA	rateB	rateC	ratio	angle	status	angmin	angmax
mpc.branch = [
	7	 8	 0.00064	 0.0305	 0.0	 400.0	 400.0	 400.0	 1.0435	 0.6	 1	 -30.0	 30.0;
	26	 28	 0.00036	 0.02519	 0.0	 500.0	 500.0	 500.0	 1.0565	 0.0	 1	 -30.0	 30.0;
	27	 29	 0.00036	 0.02519	 0.0	 500.0	 500.0	 500.0	 1.0566	 0.0	 1	 -30.0	 30.0;
	40	 42	 0.00034	 0.02097	 0.0	 500.0	 500.0	 500.0	 1.068	 0.0	 1	 -30.0	 30.0;
	43	 46	 0.00034	 0.02097	 0.0	 500.0	 500.0	 500.0	 1.0569	 0.0	 1	 -30.0	 30.0;
	55	 57	 0.00081	 0.03	 0.0	 400.0	 400.0	 400.0	 1.0765	 0.0	 1	 -30.0	 30.0;
	90	 92	 0.00075	 0.02444	 -0.00832	 330.0	 330.0	 330.0	 1.0631	 0.0	 1	 -30.0	 30.0;
	91	 93	 0.00075	 0.02469	 -0.008	 330.0	 330.0	 330.0	 1.0632	 0.0	 1	 -30.0	 30.0;
	125	 128	 0.0005	 0.02875	 -0.016	 400.0	 400.0	 400.0	 1.0639	 0.0	 1	 -30.0	 30.0;
	149	 150	 0.00064	 0.0305	 0.0	 400.0	 400.0	 400.0	 1.0826	 0.0	 1	 -30.0	 30.0;
	155	 158	 0.000232	 0.023	 0.0	 500.0	 500.0	 500.0	 1.089	 0.0	 1	 -30.0	 30.0;
	156	 159	 0.000232	 0.023	 0.0	 500.0	 500.0	 500.0	 1.0893	 0.0	 1	 -30.0	 30.0;
	170	 172	 0.00035	 0.02375	 0.0	 500.0	 500.0	 500.0	 1.1049	 0.0	 1	 -30.0	 30.0;
	183	 184	 0.00059	 0.03093	 0.0	 400.0	 400.0	 400.0	 1.091	 0.0	 1	 -30.0	 30.0;
	190	 192	 0.0004	 0.03	 0.0	 500.0	 500.0	 500.0	 1.1321	 0.0	 1	 -30.0	 30.0;
	2735	 158	 0.00031	 0.00338	 0.0992	 1386.0	 1386.0	 1386.0	 0.0	 0.0	 1	 -30.0	 30.0;
	2735	 159	 0.00031	 0.00338	 0.0992	 1386.0	 1386.0	 1386.0	 0.0	 0.0	 1	 -30.0	 30.0;
	2736	 68	 0.014341	 0.083531	 0.126034	 415.0	 415.0	 415.0	 0.0	 0.0	 1	 -30.0	 30.0;
	2734	 76	 0.01219	 0.070659	 0.117418	 412.0	 412.0	 412.0	 0.0	 0.0	 1	 -30.0	 30.0;
	2734	 105	 0.011781	 0.07087	 0.116838	 412.0	 412.0	 412.0	 0.0	 0.0	 1	 -30.0	 30.0;
	2739	 200	 9e-06	 9.4e-05	 0.0	 924.0	 924.0	 924.0	 0.0	 0.0	 1	 -30.0	 30.0;
	128	 2732	 0.0015	 0.01469	 0.40384	 1386.0	 1386.0	 1386.0	 0.0	 0.0	 0	 -30.0	 30.0;
	127	 2733	 0.001419	 0.014675	 0.4896	 1386.0	 1386.0	 1386.0	 0.0	 0.0	 1	 -30.0	 30.0;
	2737	 148	 0.001651	 0.015909	 0.046948	 373.0	 373.0	 373.0	 0.0	 0.0	 1	 -30.0	 30.0;
	2737	 149	 0.001651	 0.015909	 0.046948	 373.0	 373.0	 373.0	 0.0	 0.0	 1	 -30.0	 30.0;
	2738	 48	 0.00188	 0.02287	 0.6432	 831.0	 831.0	 831.0	 0.0	 0.0	 1	 -30.0	 30.0;
	2738	 49	 0.00188	 0.02287	 0.6432	 831.0	 831.0	 831.0	 0.0	 0.0	 1	 -30.0	 30.0;
	82	 2732	 0.003519	 0.039313	 1.0336	 1621.0	 1621.0	 1621.0	 0.0	 0.0	 1	 -30.0	 30.0;
	43	 23	 0.01345	 0.081141	 0.141134	 339.0	 339.0	 339.0	 0.0	 0.0	 1	 -30.0	 30.0;
	26	 90	 0.009091	 0.062401	 0.111417	 457.0	 457.0	 457.0	 0.0	 0.0	 1	 -30.0	 30.0;
	27	 91	 0.00868	 0.06405	 0.096994	 457.0	 457.0	 457.0	 0.0	 0.0	 1	 -30.0	 30.0;
	146	 30	 0.016961	 0.123659	 0.196988	 373.0	 373.0	 373.0	 0.0	 0.0	 1	 -30.0	 30.0;
	135	 34	 0.00512	 0.02618	 0.029621	 335.0	 335.0	 335.0	 0.0	 0.0	 1	 -30.0	 30.0;
	134	 20	 0.01068	 0.061961	 0.094961	 415.0	 415.0	 415.0	 0.0	 0.0	 1	 -30.0	 30.0;
	165	 21	 0.014651	 0.105891	 0.170852	 373.0	 373.0	 373.0	 0.0	 0.0	 1	 -30.0	 30.0;
	41	 109	 0.01488	 0.08161	 0.114805	 347.0	 347.0	 347.0	 0.0	 0.0	 1	 -30.0	 30.0;
	40	 91	 0.011159	 0.07231	 0.103673	 362.0	 362.0	 362.0	 0.0	 0.0	 1	 -30.0	 30.0;
	179	 83	 0.008616	 0.077645	 0.122239	 373.0	 373.0	 373.0	 0.0	 0.0	 1	 -30.0	 30.0;
	203	 166	 0.01176	 0.068289	 0.102802	 362.0	 362.0	 362.0	 0.0	 0.0	 1	 -30.0	 30.0;
	194	 166	 0.016818	 0.089091	 0.129935	 400.0	 400.0	 400.0	 0.0	 0.0	 1	 -30.0	 30.0;
	193	 165	 0.013843	 0.087025	 0.134842	 427.0	 427.0	 427.0	 0.0	 0.0	 1	 -30.0	 30.0;
	207	 168	 0.01676	 0.097169	 0.148685	 274.0	 274.0	 274.0	 0.0	 0.0	 1	 -30.0	 30.0;
	43	 12	 0.01269	 0.074979	 0.130196	 377.0	 377.0	 377.0	 0.0	 0.0	 1	 -30.0	 30.0;
	198	 18	 0.014091	 0.10413	 0.15972	 373.0	 373.0	 373.0	 0.0	 0.0	 1	 -30.0	 30.0;
	100	 55	 0.003719	 0.0438	 0.100962	 457.0	 457.0	 457.0	 0.0	 0.0	 1	 -30.0	 30.0;
	163	 82	 0.00194	 0.02056	 0.51584	 1316.0	 1316.0	 1316.0	 0.0	 0.0	 1	 -30.0	 30.0;
	45	 9	 0.0015	 0.01506	 0.4032	 1386.0	 1386.0	 1386.0	 0.0	 0.0	 1	 -30.0	 30.0;
	185	 151	 0.00294	 0.03463	 0.9216	 693.0	 693.0	 693.0	 0.0	 0.0	 1	 -30.0	 30.0;
	121	 57	 0.00169	 0.01994	 0.50624	 831.0	 831.0	 831.0	 0.0	 0.0	 1	 -30.0	 30.0;
	29	 93	 0.00137	 0.01625	 0.41184	 1386.0	 1386.0	 1386.0	 0.0	 0.0	 1	 -30.0	 30.0;
	28	 123	 0.00231	 0.02769	 0.70144	 1386.0	 1386.0	 1386.0	 0.0	 0.0	 1	 -30.0	 30.0;
	25	 192	 0.00207	 0.02474	 0.664	 831.0	 831.0	 831.0	 0.0	 0.0	 1	 -30.0	 30.0;
	120	 64	 0.0015	 0.01788	 0.4512	 831.0	 831.0	 831.0	 0.0	 0.0	 1	 -30.0	 30.0;
	122	 65	 0.00469	 0.05544	 1.4048	 831.0	 831.0	 831.0	 0.0	 0.0	 1	 -30.0	 30.0;
	82	 31	 0.00331	 0.03425	 0.85888	 1150.0	 1150.0	 1150.0	 0.0	 0.0	 1	 -30.0	 30.0;
	92	 28	 0.00219	 0.02369	 0.59584	 1316.0	 1316.0	 1316.0	 0.0	 0.0	 1	 -30.0	 30.0;
	11	 4	 0.01674	 0.09711	 0.144232	 461.0	 461.0	 461.0	 0.0	 0.0	 1	 -30.0	 30.0;
	30	 12	 0.0057	 0.0407	 0.06021	 373.0	 373.0	 373.0	 0.0	 0.0	 1	 -30.0	 30.0;
	33	 4	 0.004419	 0.032229	 0.049852	 392.0	 392.0	 392.0	 0.0	 0.0	 1	 -30.0	 30.0;
	17	 7	 0.014591	 0.11219	 0.165528	 427.0	 427.0	 427.0	 0.0	 0.0	 1	 -30.0	 30.0;
	22	 10	 0.01211	 0.087419	 0.140166	 373.0	 373.0	 373.0	 0.0	 0.0	 1	 -30.0	 30.0;
	26	 5	 0.009773	 0.050516	 0.088959	 377.0	 377.0	 377.0	 0.0	 0.0	 1	 -30.0	 30.0;
	17	 3	 0.01068	 0.07895	 0.122597	 274.0	 274.0	 274.0	 0.0	 0.0	 1	 -30.0	 30.0;
	26	 19	 0.0057	 0.039521	 0.075533	 480.0	 480.0	 480.0	 0.0	 0.0	 1	 -30.0	 30.0;
	27	 20	 0.0057	 0.039521	 0.075533	 480.0	 480.0	 480.0	 0.0	 0.0	 1	 -30.0	 30.0;
	10	 6	 0.00525	 0.03988	 0.061952	 373.0	 373.0	 373.0	 0.0	 0.0	 1	 -30.0	 30.0;
	32	 10	 0.00093	 0.00651	 0.011132	 373.0	 373.0	 373.0	 0.0	 0.0	 1	 -30.0	 30.0;
	23	 11	 0.00205	 0.01326	 0.022429	 415.0	 415.0	 415.0	 0.0	 0.0	 1	 -30.0	 30.0;
	34	 5	 0.007831	 0.043	 0.04962	 335.0	 335.0	 335.0	 0.0	 0.0	 1	 -30.0	 30.0;
	19	 4	 0.00293	 0.01599	 0.024781	 362.0	 362.0	 362.0	 0.0	 0.0	 1	 -30.0	 30.0;
	26	 1	 0.00155	 0.01169	 0.018198	 747.0	 747.0	 747.0	 0.0	 0.0	 1	 -30.0	 30.0;
	27	 2	 0.00155	 0.01169	 0.018198	 747.0	 747.0	 747.0	 0.0	 0.0	 1	 -30.0	 30.0;
	27	 33	 0.003841	 0.028531	 0.045883	 392.0	 392.0	 392.0	 0.0	 0.0	 1	 -30.0	 30.0;
	24	 33	 2e-06	 2.1e-05	 0.0	 392.0	 392.0	 392.0	 0.0	 0.0	 1	 -30.0	 30.0;
	25	 9	 0.00298	 0.03417	 0.93504	 831.0	 831.0	 831.0	 0.0	 0.0	 1	 -30.0	 30.0;
	28	 25	 0.00358	 0.04262	 1.0944	 1386.0	 1386.0	 1386.0	 0.0	 0.0	 1	 -30.0	 30.0;
	14	 29	 0.00336	 0.03977	 1.02163	 1316.0	 1316.0	 1316.0	 0.0	 0.0	 1	 -30.0	 30.0;
	8	 15	 0.00299	 0.03675	 0.9184	 1358.0	 1358.0	 1358.0	 0.0	 0.0	 1	 -30.0	 30.0;
	8	 14	 0.00112	 0.01329	 0.341248	 1358.0	 1358.0	 1358.0	 0.0	 0.0	 1	 -30.0	 30.0;
	31	 29	 0.00063	 0.00749	 0.392256	 1358.0	 1358.0	 1358.0	 0.0	 0.0	 1	 -30.0	 30.0;
	63	 59	 0.010479	 0.060969	 0.092047	 316.0	 316.0	 316.0	 0.0	 0.0	 1	 -30.0	 30.0;
	61	 56	 0.00882	 0.065641	 0.100662	 274.0	 274.0	 274.0	 0.0	 0.0	 1	 -30.0	 30.0;
	67	 35	 0.011219	 0.065581	 0.098349	 274.0	 274.0	 274.0	 0.0	 0.0	 1	 -30.0	 30.0;
	51	 35	 0.01163	 0.07031	 0.105802	 377.0	 377.0	 377.0	 0.0	 0.0	 1	 -30.0	 30.0;
	59	 43	 0.00545	 0.040211	 0.066986	 446.0	 446.0	 446.0	 0.0	 0.0	 1	 -30.0	 30.0;
	60	 44	 0.00545	 0.040211	 0.066986	 446.0	 446.0	 446.0	 0.0	 0.0	 1	 -30.0	 30.0;
	60	 35	 0.00837	 0.04868	 0.073481	 419.0	 419.0	 419.0	 0.0	 0.0	 1	 -30.0	 30.0;
	68	 52	 0.003159	 0.02076	 0.03146	 415.0	 415.0	 415.0	 0.0	 0.0	 1	 -30.0	 30.0;
	52	 39	 0.006979	 0.051961	 0.079666	 373.0	 373.0	 373.0	 0.0	 0.0	 1	 -30.0	 30.0;
	37	 56	 0.00374	 0.027831	 0.042689	 274.0	 274.0	 274.0	 0.0	 0.0	 1	 -30.0	 30.0;
	38	 36	 0.00769	 0.057271	 0.087894	 373.0	 373.0	 373.0	 0.0	 0.0	 1	 -30.0	 30.0;
	55	 38	 0.00556	 0.04145	 0.063598	 427.0	 427.0	 427.0	 0.0	 0.0	 1	 -30.0	 30.0;
	67	 37	 0.004521	 0.03368	 0.051691	 392.0	 392.0	 392.0	 0.0	 0.0	 1	 -30.0	 30.0;
	67	 66	 0.00151	 0.008781	 0.013165	 377.0	 377.0	 377.0	 0.0	 0.0	 1	 -30.0	 30.0;
	62	 43	 0.00574	 0.042831	 0.065727	 446.0	 446.0	 446.0	 0.0	 0.0	 1	 -30.0	 30.0;
	63	 44	 0.00707	 0.045409	 0.069309	 347.0	 347.0	 347.0	 0.0	 0.0	 1	 -30.0	 30.0;
	62	 40	 0.01213	 0.062151	 0.093712	 347.0	 347.0	 347.0	 0.0	 0.0	 1	 -30.0	 30.0;
	61	 41	 0.002479	 0.017979	 0.027588	 373.0	 373.0	 373.0	 0.0	 0.0	 1	 -30.0	 30.0;
	47	 40	 0.002401	 0.01494	 0.022525	 377.0	 377.0	 377.0	 0.0	 0.0	 1	 -30.0	 30.0;
	50	 46	 0.00167	 0.0189	 0.54176	 1358.0	 1358.0	 1358.0	 0.0	 0.0	 1	 -30.0	 30.0;
	58	 54	 0.00109	 0.01277	 0.34176	 1358.0	 1358.0	 1358.0	 0.0	 0.0	 1	 -30.0	 30.0;
	42	 58	 0.002259	 0.026439	 0.70784	 1358.0	 1358.0	 1358.0	 0.0	 0.0	 1	 -30.0	 30.0;
	64	 58	 0.00094	 0.01097	 0.29376	 1552.0	 1552.0	 1552.0	 0.0	 0.0	 1	 -30.0	 30.0;
	48	 65	 0.00113	 0.01406	 0.37488	 831.0	 831.0	 831.0	 0.0	 0.0	 1	 -30.0	 30.0;
	53	 45	 0.00176	 0.02144	 0.57344	 1358.0	 1358.0	 1358.0	 0.0	 0.0	 1	 -30.0	 30.0;
	96	 125	 0.004876	 0.033616	 0.059609	 446.0	 446.0	 446.0	 0.0	 0.0	 1	 -30.0	 30.0;
	75	 106	 0.01093	 0.059194	 0.08439	 290.0	 290.0	 290.0	 0.0	 0.0	 1	 -30.0	 30.0;
	106	 94	 0.001942	 0.013926	 0.022845	 446.0	 446.0	 446.0	 0.0	 0.0	 1	 -30.0	 30.0;
	79	 85	 0.004318	 0.029752	 0.05264	 373.0	 373.0	 373.0	 0.0	 0.0	 1	 -30.0	 30.0;
	131	 130	 0.000661	 0.004959	 0.007579	 419.0	 419.0	 419.0	 0.0	 0.0	 1	 -30.0	 30.0;
	107	 131	 0.005372	 0.040393	 0.060055	 419.0	 419.0	 419.0	 0.0	 0.0	 1	 -30.0	 30.0;
	91	 131	 0.000826	 0.005248	 0.008683	 305.0	 305.0	 305.0	 0.0	 0.0	 1	 -30.0	 30.0;
	100	 119	 0.015888	 0.087603	 0.116818	 347.0	 347.0	 347.0	 0.0	 0.0	 1	 -30.0	 30.0;
	81	 113	 0.002169	 0.014587	 0.025749	 316.0	 316.0	 316.0	 0.0	 0.0	 1	 -30.0	 30.0;
	116	 101	 0.017727	 0.116777	 0.163611	 290.0	 290.0	 290.0	 0.0	 0.0	 1	 -30.0	 30.0;
	126	 74	 0.00593	 0.04093	 0.072145	 446.0	 446.0	 446.0	 0.0	 0.0	 1	 -30.0	 30.0;
	108	 90	 0.003905	 0.028471	 0.044983	 427.0	 427.0	 427.0	 0.0	 0.0	 1	 -30.0	 30.0;
	118	 79	 0.008161	 0.042417	 0.061197	 385.0	 385.0	 385.0	 0.0	 0.0	 1	 -30.0	 30.0;
	119	 78	 0.008161	 0.042417	 0.061197	 385.0	 385.0	 385.0	 0.0	 0.0	 1	 -30.0	 30.0;
	79	 76	 0.005186	 0.038388	 0.058748	 492.0	 492.0	 492.0	 0.0	 0.0	 1	 -30.0	 30.0;
	78	 73	 0.002128	 0.014029	 0.022603	 335.0	 335.0	 335.0	 0.0	 0.0	 1	 -30.0	 30.0;
	114	 78	 0.004628	 0.027748	 0.046115	 362.0	 362.0	 362.0	 0.0	 0.0	 1	 -30.0	 30.0;
	103	 72	 0.011219	 0.070744	 0.115705	 290.0	 290.0	 290.0	 0.0	 0.0	 1	 -30.0	 30.0;
	110	 117	 0.006012	 0.041467	 0.073636	 427.0	 427.0	 427.0	 0.0	 0.0	 1	 -30.0	 30.0;
	91	 69	 0.002066	 0.012789	 0.020551	 316.0	 316.0	 316.0	 0.0	 0.0	 1	 -30.0	 30.0;
	86	 90	 0.001364	 0.009731	 0.016243	 457.0	 457.0	 457.0	 0.0	 0.0	 1	 -30.0	 30.0;
	129	 87	 0.000579	 0.004112	 0.007008	 446.0	 446.0	 446.0	 0.0	 0.0	 1	 -30.0	 30.0;
	132	 76	 0.000847	 0.00624	 0.009544	 457.0	 457.0	 457.0	 0.0	 0.0	 1	 -30.0	 30.0;
	133	 77	 0.000847	 0.00626	 0.009477	 457.0	 457.0	 457.0	 0.0	 0.0	 1	 -30.0	 30.0;
	102	 77	 0.001591	 0.011116	 0.019128	 492.0	 492.0	 492.0	 0.0	 0.0	 1	 -30.0	 30.0;
	125	 104	 0.003141	 0.021591	 0.038391	 446.0	 446.0	 446.0	 0.0	 0.0	 1	 -30.0	 30.0;
	126	 111	 0.004545	 0.03157	 0.055312	 373.0	 373.0	 373.0	 0.0	 0.0	 1	 -30.0	 30.0;
	104	 84	 0.001446	 0.009917	 0.017598	 373.0	 373.0	 373.0	 0.0	 0.0	 1	 -30.0	 30.0;
	105	 95	 0.003822	 0.026674	 0.046154	 373.0	 373.0	 373.0	 0.0	 0.0	 1	 -30.0	 30.0;
	112	 80	 0.007769	 0.041281	 0.063907	 316.0	 316.0	 316.0	 0.0	 0.0	 1	 -30.0	 30.0;
	89	 78	 0.004463	 0.030413	 0.048671	 290.0	 290.0	 290.0	 0.0	 0.0	 1	 -30.0	 30.0;
	117	 108	 0.005888	 0.035062	 0.052349	 290.0	 290.0	 290.0	 0.0	 0.0	 1	 -30.0	 30.0;
	109	 99	 0.003161	 0.023409	 0.036165	 373.0	 373.0	 373.0	 0.0	 0.0	 1	 -30.0	 30.0;
	116	 79	 0.001839	 0.012603	 0.022399	 373.0	 373.0	 373.0	 0.0	 0.0	 1	 -30.0	 30.0;
	107	 88	 0.001715	 0.009607	 0.014239	 335.0	 335.0	 335.0	 0.0	 0.0	 1	 -30.0	 30.0;
	98	 79	 0.003409	 0.024421	 0.039969	 290.0	 290.0	 290.0	 0.0	 0.0	 1	 -30.0	 30.0;
	117	 78	 0.001839	 0.012603	 0.02239	 373.0	 373.0	 373.0	 0.0	 0.0	 1	 -30.0	 30.0;
	83	 97	 0.005702	 0.041488	 0.066172	 446.0	 446.0	 446.0	 0.0	 0.0	 1	 -30.0	 30.0;
	124	 118	 0.004587	 0.024628	 0.036165	 347.0	 347.0	 347.0	 0.0	 0.0	 1	 -30.0	 30.0;
	124	 110	 0.002149	 0.013327	 0.022109	 290.0	 290.0	 290.0	 0.0	 0.0	 1	 -30.0	 30.0;
	100	 71	 0.000785	 0.004876	 0.00726	 316.0	 316.0	 316.0	 0.0	 0.0	 1	 -30.0	 30.0;
	101	 70	 0.000785	 0.004876	 0.007241	 316.0	 316.0	 316.0	 0.0	 0.0	 1	 -30.0	 30.0;
	93	 127	 0.002413	 0.027544	 0.767968	 831.0	 831.0	 831.0	 0.0	 0.0	 1	 -30.0	 30.0;
	82	 127	 0.002462	 0.028525	 0.7616	 1621.0	 1621.0	 1621.0	 0.0	 0.0	 1	 -30.0	 30.0;
	122	 115	 0.000913	 0.0104	 0.289888	 1358.0	 1358.0	 1358.0	 0.0	 0.0	 1	 -30.0	 30.0;
	123	 121	 0.003119	 0.035631	 0.991072	 831.0	 831.0	 831.0	 0.0	 0.0	 1	 -30.0	 30.0;
	115	 128	 0.000919	 0.010512	 0.292928	 1358.0	 1358.0	 1358.0	 0.0	 0.0	 1	 -30.0	 30.0;
	174	 156	 0.01545	 0.073349	 0.126614	 461.0	 461.0	 461.0	 0.0	 0.0	 1	 -30.0	 30.0;
	175	 155	 0.01545	 0.073349	 0.126614	 461.0	 461.0	 461.0	 0.0	 0.0	 1	 -30.0	 30.0;
	177	 155	 0.01457	 0.07955	 0.14007	 362.0	 362.0	 362.0	 0.0	 0.0	 1	 -30.0	 30.0;
	178	 156	 0.01457	 0.07955	 0.14007	 362.0	 362.0	 362.0	 0.0	 0.0	 1	 -30.0	 30.0;
	177	 144	 0.006031	 0.04401	 0.069793	 373.0	 373.0	 373.0	 0.0	 0.0	 1	 -30.0	 30.0;
	166	 140	 0.011031	 0.08057	 0.124127	 446.0	 446.0	 446.0	 0.0	 0.0	 1	 -30.0	 30.0;
	137	 155	 0.005831	 0.04231	 0.070664	 427.0	 427.0	 427.0	 0.0	 0.0	 1	 -30.0	 30.0;
	171	 174	 0.01849	 0.095599	 0.159139	 305.0	 305.0	 305.0	 0.0	 0.0	 1	 -30.0	 30.0;
	152	 175	 0.010581	 0.053	 0.088475	 415.0	 415.0	 415.0	 0.0	 0.0	 1	 -30.0	 30.0;
	154	 156	 0.012521	 0.091359	 0.145394	 457.0	 457.0	 457.0	 0.0	 0.0	 1	 -30.0	 30.0;
	136	 137	 0.00506	 0.036539	 0.063598	 305.0	 305.0	 305.0	 0.0	 0.0	 1	 -30.0	 30.0;
	148	 143	 0.01043	 0.077891	 0.122065	 427.0	 427.0	 427.0	 0.0	 0.0	 1	 -30.0	 30.0;
	153	 181	 0.007711	 0.056961	 0.088378	 373.0	 373.0	 373.0	 0.0	 0.0	 1	 -30.0	 30.0;
	171	 147	 0.018599	 0.09638	 0.140941	 290.0	 290.0	 290.0	 0.0	 0.0	 1	 -30.0	 30.0;
	176	 170	 0.00244	 0.01318	 0.021296	 377.0	 377.0	 377.0	 0.0	 0.0	 1	 -30.0	 30.0;
	170	 140	 0.00355	 0.02593	 0.041237	 446.0	 446.0	 446.0	 0.0	 0.0	 1	 -30.0	 30.0;
	171	 168	 0.01312	 0.076219	 0.116644	 362.0	 362.0	 362.0	 0.0	 0.0	 1	 -30.0	 30.0;
	170	 152	 0.009341	 0.05225	 0.087701	 305.0	 305.0	 305.0	 0.0	 0.0	 1	 -30.0	 30.0;
	146	 135	 0.006141	 0.032521	 0.052456	 385.0	 385.0	 385.0	 0.0	 0.0	 1	 -30.0	 30.0;
	147	 134	 0.00438	 0.03188	 0.050723	 457.0	 457.0	 457.0	 0.0	 0.0	 1	 -30.0	 30.0;
	165	 147	 0.000479	 0.00331	 0.005711	 446.0	 446.0	 446.0	 0.0	 0.0	 1	 -30.0	 30.0;
	166	 146	 0.000479	 0.00331	 0.005711	 446.0	 446.0	 446.0	 0.0	 0.0	 1	 -30.0	 30.0;
	154	 143	 0.010539	 0.076859	 0.122355	 373.0	 373.0	 373.0	 0.0	 0.0	 1	 -30.0	 30.0;
	160	 148	 0.00469	 0.034651	 0.053821	 427.0	 427.0	 427.0	 0.0	 0.0	 1	 -30.0	 30.0;
	149	 141	 0.006469	 0.0413	 0.069212	 427.0	 427.0	 427.0	 0.0	 0.0	 1	 -30.0	 30.0;
	169	 141	 0.00105	 0.007211	 0.01028	 373.0	 373.0	 373.0	 0.0	 0.0	 1	 -30.0	 30.0;
	169	 160	 0.006099	 0.044831	 0.070954	 373.0	 373.0	 373.0	 0.0	 0.0	 1	 -30.0	 30.0;
	177	 136	 0.002211	 0.01655	 0.024781	 373.0	 373.0	 373.0	 0.0	 0.0	 1	 -30.0	 30.0;
	179	 178	 0.005169	 0.036979	 0.058951	 373.0	 373.0	 373.0	 0.0	 0.0	 1	 -30.0	 30.0;
	181	 174	 0.002401	 0.017789	 0.027588	 381.0	 381.0	 381.0	 0.0	 0.0	 1	 -30.0	 30.0;
	158	 138	 0.00274	 0.02696	 0.70592	 1150.0	 1150.0	 1150.0	 0.0	 0.0	 1	 -30.0	 30.0;
	164	 139	 0.0017	 0.01733	 0.45632	 915.0	 915.0	 915.0	 0.0	 0.0	 1	 -30.0	 30.0;
	162	 163	 0.00136	 0.01574	 0.433664	 1621.0	 1621.0	 1621.0	 0.0	 0.0	 1	 -30.0	 30.0;
	172	 151	 0.00371	 0.04326	 1.18688	 693.0	 693.0	 693.0	 0.0	 0.0	 1	 -30.0	 30.0;
	188	 193	 0.02738	 0.142539	 0.200473	 351.0	 351.0	 351.0	 0.0	 0.0	 1	 -30.0	 30.0;
	198	 203	 0.02756	 0.16014	 0.242871	 274.0	 274.0	 274.0	 0.0	 0.0	 1	 -30.0	 30.0;
	189	 208	 0.01905	 0.11132	 0.167851	 274.0	 274.0	 274.0	 0.0	 0.0	 1	 -30.0	 30.0;
	191	 194	 0.00795	 0.05919	 0.090798	 373.0	 373.0	 373.0	 0.0	 0.0	 1	 -30.0	 30.0;
	193	 182	 0.0018	 0.021141	 0.051498	 747.0	 747.0	 747.0	 0.0	 0.0	 1	 -30.0	 30.0;
	202	 204	 0.00731	 0.055789	 0.083635	 274.0	 274.0	 274.0	 0.0	 0.0	 1	 -30.0	 30.0;
...